/*---------------------------------------------------------------------------*\
| =========                 |                                                 |
| \\      /  F ield         | OpenFOAM: The Open Source CFD Toolbox           |
|  \\    /   O peration     | Version:  v2012                                 |
|   \\  /    A nd           | Website:  www.openfoam.com                      |
|    \\/     M anipulation  |                                                 |
\*---------------------------------------------------------------------------*/
Build  : _7bdb509494-20201222 OPENFOAM=2012
Arch   : "LSB;label=32;scalar=64"
Exec   : buoyantSimpleFoam
Date   : Jul 21 2021
Time   : 22:46:21
Host   : DESKTOP-DOBVM7I
PID    : 1087
I/O    : uncollated
Case   : /mnt/c/Users/TSam/tutorials/heatTransfer/buoyantSimpleFoam/buoyantCavity
nProcs : 1
trapFpe: Floating point exception trapping enabled (FOAM_SIGFPE).
fileModificationChecking : Monitoring run-time modified files using timeStampMaster (fileModificationSkew 5, maxFileModificationPolls 20)
allowSystemOperations : Allowing user-supplied system call operations

// * * * * * * * * * * * * * * * * * * * * * * * * * * * * * * * * * * * * * //
Create time

Create mesh for time = 0


SIMPLE: convergence criteria
    field p_rgh	 tolerance 0.0001
    field U	 tolerance 0.0001
    field h	 tolerance 0.0001
    field "(k|epsilon|omega)"	 tolerance 0.001

Reading thermophysical properties

Selecting thermodynamics package 
{
    type            heRhoThermo;
    mixture         pureMixture;
    transport       const;
    thermo          hConst;
    equationOfState perfectGas;
    specie          specie;
    energy          sensibleEnthalpy;
}

Reading field U

Reading/calculating face flux field phi

Creating turbulence model

Selecting turbulence model type RAS
Selecting RAS turbulence model kOmegaSST
Selecting patchDistMethod meshWave
RAS
{
    RASModel        kOmegaSST;
    turbulence      on;
    printCoeffs     on;
    alphaK1         0.85;
    alphaK2         1;
    alphaOmega1     0.5;
    alphaOmega2     0.856;
    gamma1          0.555556;
    gamma2          0.44;
    beta1           0.075;
    beta2           0.0828;
    betaStar        0.09;
    a1              0.31;
    b1              1;
    c1              10;
    F3              false;
    decayControl    false;
    kInf            0;
    omegaInf        0;
}


Reading g

Reading hRef
Calculating field g.h

Reading field p_rgh

No MRF models present

Radiation model not active: radiationProperties not found
Selecting radiationModel none
No finite volume options present

Starting time loop

Time = 1

DILUPBiCGStab:  Solving for h, Initial residual = 1, Final residual = 0.00201972, No Iterations 1
GAMG:  Solving for p_rgh, Initial residual = 0.0977446, Final residual = 0.000905299, No Iterations 51
time step continuity errors : sum local = 2.39166e-05, global = -4.82366e-19, cumulative = -4.82366e-19
rho min/max : 1.18436 1.19321
DILUPBiCGStab:  Solving for omega, Initial residual = 0.1432, Final residual = 0.00110708, No Iterations 1
DILUPBiCGStab:  Solving for k, Initial residual = 1, Final residual = 0.0156697, No Iterations 1
ExecutionTime = 2.17 s  ClockTime = 2 s

Time = 2

DILUPBiCGStab:  Solving for h, Initial residual = 0.982817, Final residual = 0.00193463, No Iterations 1
GAMG:  Solving for p_rgh, Initial residual = 0.307757, Final residual = 0.00303534, No Iterations 27
time step continuity errors : sum local = 0.00211512, global = 1.69075e-17, cumulative = 1.64252e-17
rho min/max : 1.18169 1.19593
DILUPBiCGStab:  Solving for omega, Initial residual = 0.0216119, Final residual = 1.20919e-05, No Iterations 1
DILUPBiCGStab:  Solving for k, Initial residual = 0.368613, Final residual = 0.000578431, No Iterations 1
ExecutionTime = 2.92 s  ClockTime = 3 s

Time = 3

DILUPBiCGStab:  Solving for h, Initial residual = 0.327557, Final residual = 0.000787313, No Iterations 1
GAMG:  Solving for p_rgh, Initial residual = 0.981719, Final residual = 0.00164942, No Iterations 1
time step continuity errors : sum local = 0.0313732, global = 1.87367e-17, cumulative = 3.51619e-17
rho min/max : 1.17966 1.19801
DILUPBiCGStab:  Solving for omega, Initial residual = 0.00135066, Final residual = 2.67202e-05, No Iterations 1
DILUPBiCGStab:  Solving for k, Initial residual = 0.0256281, Final residual = 0.000383042, No Iterations 1
ExecutionTime = 3.19 s  ClockTime = 3 s

Time = 4

DILUPBiCGStab:  Solving for h, Initial residual = 0.135205, Final residual = 0.00171565, No Iterations 1
GAMG:  Solving for p_rgh, Initial residual = 0.444253, Final residual = 0.00140175, No Iterations 1
time step continuity errors : sum local = 0.052537, global = -6.34093e-17, cumulative = -2.82474e-17
rho min/max : 1.17834 1.19943
DILUPBiCGStab:  Solving for omega, Initial residual = 0.000495177, Final residual = 1.51266e-05, No Iterations 1
DILUPBiCGStab:  Solving for k, Initial residual = 0.0281679, Final residual = 0.000379493, No Iterations 1
ExecutionTime = 3.45 s  ClockTime = 4 s

Time = 5

DILUPBiCGStab:  Solving for h, Initial residual = 0.0904789, Final residual = 0.00114571, No Iterations 1
GAMG:  Solving for p_rgh, Initial residual = 0.193374, Final residual = 0.00118476, No Iterations 1
time step continuity errors : sum local = 0.0617478, global = 4.1885e-17, cumulative = 1.36376e-17
rho min/max : 1.17703 1.20052
DILUPBiCGStab:  Solving for omega, Initial residual = 0.00102991, Final residual = 3.39819e-05, No Iterations 1
DILUPBiCGStab:  Solving for k, Initial residual = 0.0295241, Final residual = 0.000542831, No Iterations 1
ExecutionTime = 3.73 s  ClockTime = 4 s

Time = 6

DILUPBiCGStab:  Solving for h, Initial residual = 0.0675398, Final residual = 0.000838896, No Iterations 1
GAMG:  Solving for p_rgh, Initial residual = 0.0965868, Final residual = 0.000951836, No Iterations 3
time step continuity errors : sum local = 0.0505309, global = -1.2238e-17, cumulative = 1.39962e-18
rho min/max : 1.17578 1.20167
DILUPBiCGStab:  Solving for omega, Initial residual = 0.000888925, Final residual = 2.97509e-05, No Iterations 1
DILUPBiCGStab:  Solving for k, Initial residual = 0.0244057, Final residual = 0.000507516, No Iterations 1
ExecutionTime = 4.05 s  ClockTime = 4 s

Time = 7

DILUPBiCGStab:  Solving for h, Initial residual = 0.0598798, Final residual = 0.000724232, No Iterations 1
GAMG:  Solving for p_rgh, Initial residual = 0.0456633, Final residual = 0.0004195, No Iterations 12
time step continuity errors : sum local = 0.0252645, global = -6.64159e-18, cumulative = -5.24197e-18
rho min/max : 1.17469 1.28204
DILUPBiCGStab:  Solving for omega, Initial residual = 0.000954341, Final residual = 1.71253e-05, No Iterations 1
DILUPBiCGStab:  Solving for k, Initial residual = 0.0707955, Final residual = 0.000327495, No Iterations 1
ExecutionTime = 4.6 s  ClockTime = 5 s

Time = 8

DILUPBiCGStab:  Solving for h, Initial residual = 0.0743083, Final residual = 0.000564588, No Iterations 1
GAMG:  Solving for p_rgh, Initial residual = 0.0343106, Final residual = 0.000263381, No Iterations 3
time step continuity errors : sum local = 0.0205035, global = -4.52256e-18, cumulative = -9.76453e-18
rho min/max : 1.174 1.26066
DILUPBiCGStab:  Solving for omega, Initial residual = 0.00076522, Final residual = 1.05971e-05, No Iterations 1
DILUPBiCGStab:  Solving for k, Initial residual = 0.0494424, Final residual = 0.000394495, No Iterations 1
ExecutionTime = 4.91 s  ClockTime = 5 s

Time = 9

DILUPBiCGStab:  Solving for h, Initial residual = 0.0666112, Final residual = 0.000347161, No Iterations 1
GAMG:  Solving for p_rgh, Initial residual = 0.0500423, Final residual = 0.000380644, No Iterations 3
time step continuity errors : sum local = 0.0345184, global = 2.03737e-17, cumulative = 1.06091e-17
rho min/max : 1.17307 1.2476
DILUPBiCGStab:  Solving for omega, Initial residual = 0.000763112, Final residual = 9.35358e-06, No Iterations 1
DILUPBiCGStab:  Solving for k, Initial residual = 0.0211655, Final residual = 0.000365658, No Iterations 1
ExecutionTime = 5.24 s  ClockTime = 5 s

Time = 10

DILUPBiCGStab:  Solving for h, Initial residual = 0.0616777, Final residual = 0.000306086, No Iterations 1
GAMG:  Solving for p_rgh, Initial residual = 0.0493641, Final residual = 0.000409655, No Iterations 3
time step continuity errors : sum local = 0.0408973, global = -2.93942e-17, cumulative = -1.87851e-17
rho min/max : 1.1722 1.2601
DILUPBiCGStab:  Solving for omega, Initial residual = 0.000738591, Final residual = 7.52203e-06, No Iterations 1
DILUPBiCGStab:  Solving for k, Initial residual = 0.0210491, Final residual = 0.000366713, No Iterations 1
ExecutionTime = 5.58 s  ClockTime = 6 s

Time = 11

DILUPBiCGStab:  Solving for h, Initial residual = 0.0577745, Final residual = 0.00022905, No Iterations 1
GAMG:  Solving for p_rgh, Initial residual = 0.0456143, Final residual = 0.000439084, No Iterations 1
time step continuity errors : sum local = 0.0452736, global = -1.24109e-18, cumulative = -2.00262e-17
rho min/max : 1.17147 1.26934
DILUPBiCGStab:  Solving for omega, Initial residual = 0.000439082, Final residual = 7.58464e-06, No Iterations 1
DILUPBiCGStab:  Solving for k, Initial residual = 0.0181084, Final residual = 0.000375845, No Iterations 1
ExecutionTime = 5.86 s  ClockTime = 6 s

Time = 12

DILUPBiCGStab:  Solving for h, Initial residual = 0.0494406, Final residual = 0.000241922, No Iterations 1
GAMG:  Solving for p_rgh, Initial residual = 0.0384227, Final residual = 0.000328481, No Iterations 3
time step continuity errors : sum local = 0.0326738, global = 1.55561e-17, cumulative = -4.47003e-18
rho min/max : 1.17079 1.27772
DILUPBiCGStab:  Solving for omega, Initial residual = 0.000402668, Final residual = 6.1443e-06, No Iterations 1
DILUPBiCGStab:  Solving for k, Initial residual = 0.0175515, Final residual = 0.000323228, No Iterations 1
ExecutionTime = 6.18 s  ClockTime = 6 s

Time = 13

DILUPBiCGStab:  Solving for h, Initial residual = 0.0471299, Final residual = 0.000202349, No Iterations 1
GAMG:  Solving for p_rgh, Initial residual = 0.0291478, Final residual = 0.000276003, No Iterations 3
time step continuity errors : sum local = 0.0296397, global = -1.01733e-17, cumulative = -1.46433e-17
rho min/max : 1.17012 1.286
DILUPBiCGStab:  Solving for omega, Initial residual = 0.0003275, Final residual = 4.40973e-06, No Iterations 1
DILUPBiCGStab:  Solving for k, Initial residual = 0.0175257, Final residual = 0.000253673, No Iterations 1
ExecutionTime = 6.51 s  ClockTime = 7 s

Time = 14

DILUPBiCGStab:  Solving for h, Initial residual = 0.0454175, Final residual = 0.000310603, No Iterations 1
GAMG:  Solving for p_rgh, Initial residual = 0.0249391, Final residual = 0.000155765, No Iterations 2
time step continuity errors : sum local = 0.0173334, global = 1.73738e-17, cumulative = 2.73043e-18
rho min/max : 1.16945 1.27266
DILUPBiCGStab:  Solving for omega, Initial residual = 0.000328836, Final residual = 3.47307e-06, No Iterations 1
DILUPBiCGStab:  Solving for k, Initial residual = 0.0153988, Final residual = 0.000194351, No Iterations 1
ExecutionTime = 6.8 s  ClockTime = 7 s

Time = 15

DILUPBiCGStab:  Solving for h, Initial residual = 0.0408157, Final residual = 0.000150664, No Iterations 1
GAMG:  Solving for p_rgh, Initial residual = 0.0252505, Final residual = 0.000237082, No Iterations 1
time step continuity errors : sum local = 0.0268541, global = -2.58351e-17, cumulative = -2.31047e-17
rho min/max : 1.16881 1.32104
DILUPBiCGStab:  Solving for omega, Initial residual = 0.000394491, Final residual = 4.23447e-06, No Iterations 1
DILUPBiCGStab:  Solving for k, Initial residual = 0.0124221, Final residual = 0.000155411, No Iterations 1
ExecutionTime = 7.05 s  ClockTime = 7 s

Time = 16

DILUPBiCGStab:  Solving for h, Initial residual = 0.0371209, Final residual = 0.000154874, No Iterations 1
GAMG:  Solving for p_rgh, Initial residual = 0.0241607, Final residual = 0.000107139, No Iterations 2
time step continuity errors : sum local = 0.0122031, global = -2.44368e-17, cumulative = -4.75415e-17
rho min/max : 1.16806 1.33506
DILUPBiCGStab:  Solving for omega, Initial residual = 0.000313077, Final residual = 4.70319e-06, No Iterations 1
DILUPBiCGStab:  Solving for k, Initial residual = 0.0102092, Final residual = 0.000131154, No Iterations 1
ExecutionTime = 7.33 s  ClockTime = 8 s

Time = 17

DILUPBiCGStab:  Solving for h, Initial residual = 0.0344168, Final residual = 0.000181223, No Iterations 1
GAMG:  Solving for p_rgh, Initial residual = 0.0212887, Final residual = 0.000141691, No Iterations 2
time step continuity errors : sum local = 0.0162783, global = -3.01709e-19, cumulative = -4.78432e-17
rho min/max : 1.16723 1.30712
DILUPBiCGStab:  Solving for omega, Initial residual = 0.000250659, Final residual = 4.68183e-06, No Iterations 1
DILUPBiCGStab:  Solving for k, Initial residual = 0.00877073, Final residual = 0.000123369, No Iterations 1
ExecutionTime = 7.63 s  ClockTime = 8 s

Time = 18

DILUPBiCGStab:  Solving for h, Initial residual = 0.030514, Final residual = 0.000189721, No Iterations 1
GAMG:  Solving for p_rgh, Initial residual = 0.0183429, Final residual = 0.00017664, No Iterations 2
time step continuity errors : sum local = 0.0208678, global = 8.25851e-18, cumulative = -3.95847e-17
rho min/max : 1.16642 1.29431
DILUPBiCGStab:  Solving for omega, Initial residual = 0.000244956, Final residual = 4.71409e-06, No Iterations 1
DILUPBiCGStab:  Solving for k, Initial residual = 0.00834103, Final residual = 0.000118103, No Iterations 1
ExecutionTime = 7.93 s  ClockTime = 8 s

Time = 19

DILUPBiCGStab:  Solving for h, Initial residual = 0.0282002, Final residual = 0.000234783, No Iterations 1
GAMG:  Solving for p_rgh, Initial residual = 0.0158712, Final residual = 0.000156386, No Iterations 2
time step continuity errors : sum local = 0.0175617, global = -1.63034e-17, cumulative = -5.5888e-17
rho min/max : 1.16561 1.29775
DILUPBiCGStab:  Solving for omega, Initial residual = 0.000375968, Final residual = 6.61159e-06, No Iterations 1
DILUPBiCGStab:  Solving for k, Initial residual = 0.0080382, Final residual = 0.000117047, No Iterations 1
ExecutionTime = 8.21 s  ClockTime = 8 s

Time = 20

DILUPBiCGStab:  Solving for h, Initial residual = 0.0253633, Final residual = 0.000163729, No Iterations 1
GAMG:  Solving for p_rgh, Initial residual = 0.0143276, Final residual = 0.000125473, No Iterations 10
time step continuity errors : sum local = 0.013836, global = -2.24739e-17, cumulative = -7.8362e-17
rho min/max : 1.16479 1.28471
DILUPBiCGStab:  Solving for omega, Initial residual = 0.00025603, Final residual = 3.63454e-06, No Iterations 1
DILUPBiCGStab:  Solving for k, Initial residual = 0.00625589, Final residual = 0.000100823, No Iterations 1
ExecutionTime = 8.65 s  ClockTime = 9 s

Time = 21

DILUPBiCGStab:  Solving for h, Initial residual = 0.0253681, Final residual = 0.000122818, No Iterations 1
GAMG:  Solving for p_rgh, Initial residual = 0.0131029, Final residual = 4.39565e-05, No Iterations 2
time step continuity errors : sum local = 0.0054301, global = 1.41662e-17, cumulative = -6.41958e-17
rho min/max : 1.16397 1.2762
DILUPBiCGStab:  Solving for omega, Initial residual = 0.000210382, Final residual = 3.40329e-06, No Iterations 1
DILUPBiCGStab:  Solving for k, Initial residual = 0.00831016, Final residual = 0.000138009, No Iterations 1
ExecutionTime = 8.99 s  ClockTime = 9 s

Time = 22

DILUPBiCGStab:  Solving for h, Initial residual = 0.0240839, Final residual = 0.000106512, No Iterations 1
GAMG:  Solving for p_rgh, Initial residual = 0.013421, Final residual = 4.75995e-05, No Iterations 2
time step continuity errors : sum local = 0.00586708, global = 4.14343e-18, cumulative = -6.00524e-17
rho min/max : 1.16316 1.26905
DILUPBiCGStab:  Solving for omega, Initial residual = 0.000247553, Final residual = 3.75997e-06, No Iterations 1
DILUPBiCGStab:  Solving for k, Initial residual = 0.0100064, Final residual = 0.000154142, No Iterations 1
ExecutionTime = 9.3 s  ClockTime = 10 s

Time = 23

DILUPBiCGStab:  Solving for h, Initial residual = 0.0229264, Final residual = 9.55155e-05, No Iterations 1
GAMG:  Solving for p_rgh, Initial residual = 0.0137506, Final residual = 0.000101188, No Iterations 2
time step continuity errors : sum local = 0.0123372, global = 2.32107e-17, cumulative = -3.68416e-17
rho min/max : 1.16235 1.26213
DILUPBiCGStab:  Solving for omega, Initial residual = 0.000303695, Final residual = 4.46896e-06, No Iterations 1
DILUPBiCGStab:  Solving for k, Initial residual = 0.0107557, Final residual = 0.000171495, No Iterations 1
ExecutionTime = 9.63 s  ClockTime = 10 s

Time = 24

DILUPBiCGStab:  Solving for h, Initial residual = 0.0218174, Final residual = 8.09245e-05, No Iterations 1
GAMG:  Solving for p_rgh, Initial residual = 0.0137759, Final residual = 0.000115324, No Iterations 3
time step continuity errors : sum local = 0.0139972, global = 1.49073e-18, cumulative = -3.53509e-17
rho min/max : 1.16156 1.26577
DILUPBiCGStab:  Solving for omega, Initial residual = 0.000184635, Final residual = 3.2639e-06, No Iterations 1
DILUPBiCGStab:  Solving for k, Initial residual = 0.00993374, Final residual = 0.00017223, No Iterations 1
ExecutionTime = 9.94 s  ClockTime = 10 s

Time = 25

DILUPBiCGStab:  Solving for h, Initial residual = 0.0208234, Final residual = 8.15761e-05, No Iterations 1
GAMG:  Solving for p_rgh, Initial residual = 0.0125568, Final residual = 0.000114931, No Iterations 5
time step continuity errors : sum local = 0.0136355, global = -1.03719e-17, cumulative = -4.57229e-17
rho min/max : 1.16078 1.25658
DILUPBiCGStab:  Solving for omega, Initial residual = 0.000154134, Final residual = 2.86759e-06, No Iterations 1
DILUPBiCGStab:  Solving for k, Initial residual = 0.00830152, Final residual = 0.000151387, No Iterations 1
ExecutionTime = 10.36 s  ClockTime = 11 s

Time = 26

DILUPBiCGStab:  Solving for h, Initial residual = 0.0198841, Final residual = 7.41794e-05, No Iterations 1
GAMG:  Solving for p_rgh, Initial residual = 0.0114502, Final residual = 8.11499e-05, No Iterations 5
time step continuity errors : sum local = 0.0095523, global = 7.25071e-19, cumulative = -4.49978e-17
rho min/max : 1.16002 1.25272
DILUPBiCGStab:  Solving for omega, Initial residual = 0.000383254, Final residual = 4.40007e-06, No Iterations 1
DILUPBiCGStab:  Solving for k, Initial residual = 0.00689966, Final residual = 9.69626e-05, No Iterations 1
ExecutionTime = 10.69 s  ClockTime = 11 s

Time = 27

DILUPBiCGStab:  Solving for h, Initial residual = 0.0191557, Final residual = 7.74082e-05, No Iterations 1
GAMG:  Solving for p_rgh, Initial residual = 0.010823, Final residual = 8.20101e-05, No Iterations 2
time step continuity errors : sum local = 0.00956928, global = -1.56692e-17, cumulative = -6.0667e-17
rho min/max : 1.15937 1.24845
DILUPBiCGStab:  Solving for omega, Initial residual = 0.000175446, Final residual = 2.56769e-06, No Iterations 1
DILUPBiCGStab:  Solving for k, Initial residual = 0.00759453, Final residual = 0.000123154, No Iterations 1
ExecutionTime = 11.03 s  ClockTime = 11 s

Time = 28

DILUPBiCGStab:  Solving for h, Initial residual = 0.0184255, Final residual = 7.77932e-05, No Iterations 1
GAMG:  Solving for p_rgh, Initial residual = 0.0103828, Final residual = 4.33101e-05, No Iterations 2
time step continuity errors : sum local = 0.00507469, global = -1.93346e-18, cumulative = -6.26005e-17
rho min/max : 1.15877 1.24398
DILUPBiCGStab:  Solving for omega, Initial residual = 0.000141108, Final residual = 2.13186e-06, No Iterations 1
DILUPBiCGStab:  Solving for k, Initial residual = 0.0086165, Final residual = 0.000136283, No Iterations 1
ExecutionTime = 11.33 s  ClockTime = 12 s

Time = 29

DILUPBiCGStab:  Solving for h, Initial residual = 0.0176838, Final residual = 7.91315e-05, No Iterations 1
GAMG:  Solving for p_rgh, Initial residual = 0.0100097, Final residual = 3.99834e-05, No Iterations 2
time step continuity errors : sum local = 0.00468878, global = 1.96793e-17, cumulative = -4.29212e-17
rho min/max : 1.15825 1.24076
DILUPBiCGStab:  Solving for omega, Initial residual = 0.000214431, Final residual = 2.89325e-06, No Iterations 1
DILUPBiCGStab:  Solving for k, Initial residual = 0.0094472, Final residual = 0.000140727, No Iterations 1
ExecutionTime = 11.63 s  ClockTime = 12 s

Time = 30

DILUPBiCGStab:  Solving for h, Initial residual = 0.01694, Final residual = 7.93792e-05, No Iterations 1
GAMG:  Solving for p_rgh, Initial residual = 0.00952723, Final residual = 5.06522e-05, No Iterations 2
time step continuity errors : sum local = 0.00590351, global = 1.60551e-17, cumulative = -2.68661e-17
rho min/max : 1.15771 1.23825
DILUPBiCGStab:  Solving for omega, Initial residual = 0.000415456, Final residual = 5.05503e-06, No Iterations 1
DILUPBiCGStab:  Solving for k, Initial residual = 0.0100245, Final residual = 0.000145298, No Iterations 1
ExecutionTime = 11.91 s  ClockTime = 12 s

Time = 31

DILUPBiCGStab:  Solving for h, Initial residual = 0.0162108, Final residual = 7.83469e-05, No Iterations 1
GAMG:  Solving for p_rgh, Initial residual = 0.00914488, Final residual = 8.654e-05, No Iterations 2
time step continuity errors : sum local = 0.0102333, global = 1.57614e-17, cumulative = -1.11047e-17
rho min/max : 1.15719 1.23586
DILUPBiCGStab:  Solving for omega, Initial residual = 0.000232273, Final residual = 2.58467e-06, No Iterations 1
DILUPBiCGStab:  Solving for k, Initial residual = 0.0101504, Final residual = 0.000146076, No Iterations 1
ExecutionTime = 12.21 s  ClockTime = 13 s

Time = 32

DILUPBiCGStab:  Solving for h, Initial residual = 0.0155256, Final residual = 7.7467e-05, No Iterations 1
GAMG:  Solving for p_rgh, Initial residual = 0.00890614, Final residual = 7.04569e-05, No Iterations 3
time step continuity errors : sum local = 0.00851213, global = 2.39956e-18, cumulative = -8.70512e-18
rho min/max : 1.15664 1.23287
DILUPBiCGStab:  Solving for omega, Initial residual = 0.000146272, Final residual = 2.10544e-06, No Iterations 1
DILUPBiCGStab:  Solving for k, Initial residual = 0.0095077, Final residual = 0.000143437, No Iterations 1
ExecutionTime = 12.5 s  ClockTime = 13 s

Time = 33

DILUPBiCGStab:  Solving for h, Initial residual = 0.0148798, Final residual = 7.41945e-05, No Iterations 1
GAMG:  Solving for p_rgh, Initial residual = 0.00883307, Final residual = 6.53272e-05, No Iterations 5
time step continuity errors : sum local = 0.00795995, global = -9.83535e-18, cumulative = -1.85405e-17
rho min/max : 1.15614 1.23588
DILUPBiCGStab:  Solving for omega, Initial residual = 0.000121503, Final residual = 2.01043e-06, No Iterations 1
DILUPBiCGStab:  Solving for k, Initial residual = 0.00830732, Final residual = 0.000109318, No Iterations 1
ExecutionTime = 12.86 s  ClockTime = 13 s

Time = 34

DILUPBiCGStab:  Solving for h, Initial residual = 0.0143252, Final residual = 7.07286e-05, No Iterations 1
GAMG:  Solving for p_rgh, Initial residual = 0.00852499, Final residual = 5.0024e-05, No Iterations 2
time step continuity errors : sum local = 0.00582603, global = -3.16899e-17, cumulative = -5.02304e-17
rho min/max : 1.15566 1.23172
DILUPBiCGStab:  Solving for omega, Initial residual = 0.000125748, Final residual = 1.89694e-06, No Iterations 1
DILUPBiCGStab:  Solving for k, Initial residual = 0.00829822, Final residual = 9.29558e-05, No Iterations 1
ExecutionTime = 13.16 s  ClockTime = 14 s

Time = 35

DILUPBiCGStab:  Solving for h, Initial residual = 0.0137744, Final residual = 6.87869e-05, No Iterations 1
GAMG:  Solving for p_rgh, Initial residual = 0.00803599, Final residual = 4.34413e-05, No Iterations 2
time step continuity errors : sum local = 0.00500086, global = -2.73541e-17, cumulative = -7.75845e-17
rho min/max : 1.15515 1.23032
DILUPBiCGStab:  Solving for omega, Initial residual = 0.000149338, Final residual = 2.12819e-06, No Iterations 1
DILUPBiCGStab:  Solving for k, Initial residual = 0.00893806, Final residual = 0.000113678, No Iterations 1
ExecutionTime = 13.46 s  ClockTime = 14 s

Time = 36

DILUPBiCGStab:  Solving for h, Initial residual = 0.0132851, Final residual = 6.55831e-05, No Iterations 1
GAMG:  Solving for p_rgh, Initial residual = 0.0078395, Final residual = 4.37217e-05, No Iterations 2
time step continuity errors : sum local = 0.00501618, global = 1.86003e-17, cumulative = -5.89842e-17
rho min/max : 1.15466 1.22854
DILUPBiCGStab:  Solving for omega, Initial residual = 0.000215035, Final residual = 2.76727e-06, No Iterations 1
DILUPBiCGStab:  Solving for k, Initial residual = 0.0096852, Final residual = 0.000134473, No Iterations 1
ExecutionTime = 13.74 s  ClockTime = 14 s

Time = 37

DILUPBiCGStab:  Solving for h, Initial residual = 0.0128296, Final residual = 6.31764e-05, No Iterations 1
GAMG:  Solving for p_rgh, Initial residual = 0.00740577, Final residual = 5.60368e-05, No Iterations 2
time step continuity errors : sum local = 0.00635882, global = 6.82065e-18, cumulative = -5.21636e-17
rho min/max : 1.15426 1.22694
DILUPBiCGStab:  Solving for omega, Initial residual = 0.000145303, Final residual = 2.191e-06, No Iterations 1
DILUPBiCGStab:  Solving for k, Initial residual = 0.0101743, Final residual = 0.000147151, No Iterations 1
ExecutionTime = 14.02 s  ClockTime = 15 s

Time = 38

DILUPBiCGStab:  Solving for h, Initial residual = 0.0124046, Final residual = 6.09577e-05, No Iterations 1
GAMG:  Solving for p_rgh, Initial residual = 0.0070279, Final residual = 6.09951e-05, No Iterations 2
time step continuity errors : sum local = 0.00687885, global = -2.6076e-17, cumulative = -7.82396e-17
rho min/max : 1.15381 1.22712
DILUPBiCGStab:  Solving for omega, Initial residual = 9.0006e-05, Final residual = 1.66658e-06, No Iterations 1
DILUPBiCGStab:  Solving for k, Initial residual = 0.0104742, Final residual = 0.000154964, No Iterations 1
ExecutionTime = 14.3 s  ClockTime = 15 s

Time = 39

DILUPBiCGStab:  Solving for h, Initial residual = 0.0120093, Final residual = 5.91808e-05, No Iterations 1
GAMG:  Solving for p_rgh, Initial residual = 0.00682412, Final residual = 5.86411e-05, No Iterations 2
time step continuity errors : sum local = 0.00657999, global = -3.05961e-17, cumulative = -1.08836e-16
rho min/max : 1.15343 1.22734
DILUPBiCGStab:  Solving for omega, Initial residual = 8.46997e-05, Final residual = 1.65932e-06, No Iterations 1
DILUPBiCGStab:  Solving for k, Initial residual = 0.0106378, Final residual = 0.000159454, No Iterations 1
ExecutionTime = 14.58 s  ClockTime = 15 s

Time = 40

DILUPBiCGStab:  Solving for h, Initial residual = 0.0116452, Final residual = 5.77587e-05, No Iterations 1
GAMG:  Solving for p_rgh, Initial residual = 0.00670645, Final residual = 5.21115e-05, No Iterations 2
time step continuity errors : sum local = 0.00581584, global = -1.78518e-17, cumulative = -1.26688e-16
rho min/max : 1.15311 1.22764
DILUPBiCGStab:  Solving for omega, Initial residual = 8.5414e-05, Final residual = 1.73072e-06, No Iterations 1
DILUPBiCGStab:  Solving for k, Initial residual = 0.0107155, Final residual = 0.000161558, No Iterations 1
ExecutionTime = 14.94 s  ClockTime = 15 s

Time = 41

DILUPBiCGStab:  Solving for h, Initial residual = 0.0113152, Final residual = 5.65064e-05, No Iterations 1
GAMG:  Solving for p_rgh, Initial residual = 0.00649198, Final residual = 5.13366e-05, No Iterations 2
time step continuity errors : sum local = 0.00568514, global = 1.78592e-17, cumulative = -1.08828e-16
rho min/max : 1.1528 1.22797
DILUPBiCGStab:  Solving for omega, Initial residual = 8.73056e-05, Final residual = 1.81675e-06, No Iterations 1
DILUPBiCGStab:  Solving for k, Initial residual = 0.010758, Final residual = 0.000161505, No Iterations 1
ExecutionTime = 15.31 s  ClockTime = 16 s

Time = 42

DILUPBiCGStab:  Solving for h, Initial residual = 0.0110143, Final residual = 5.58578e-05, No Iterations 1
GAMG:  Solving for p_rgh, Initial residual = 0.0063946, Final residual = 5.92391e-05, No Iterations 3
time step continuity errors : sum local = 0.0065978, global = 2.54569e-17, cumulative = -8.33714e-17
rho min/max : 1.15251 1.22824
DILUPBiCGStab:  Solving for omega, Initial residual = 8.93626e-05, Final residual = 1.91821e-06, No Iterations 1
DILUPBiCGStab:  Solving for k, Initial residual = 0.0107368, Final residual = 0.00015435, No Iterations 1
ExecutionTime = 15.61 s  ClockTime = 16 s

Time = 43

DILUPBiCGStab:  Solving for h, Initial residual = 0.0107169, Final residual = 5.50625e-05, No Iterations 1
GAMG:  Solving for p_rgh, Initial residual = 0.00631064, Final residual = 4.82675e-05, No Iterations 2
time step continuity errors : sum local = 0.00531646, global = 5.2157e-18, cumulative = -7.81558e-17
rho min/max : 1.15214 1.22865
DILUPBiCGStab:  Solving for omega, Initial residual = 8.79956e-05, Final residual = 1.94357e-06, No Iterations 1
DILUPBiCGStab:  Solving for k, Initial residual = 0.010871, Final residual = 0.000150685, No Iterations 1
ExecutionTime = 15.95 s  ClockTime = 17 s

Time = 44

DILUPBiCGStab:  Solving for h, Initial residual = 0.0104611, Final residual = 5.45588e-05, No Iterations 1
GAMG:  Solving for p_rgh, Initial residual = 0.0061314, Final residual = 3.85524e-05, No Iterations 4
time step continuity errors : sum local = 0.00428287, global = 5.21202e-18, cumulative = -7.29437e-17
rho min/max : 1.15184 1.22896
DILUPBiCGStab:  Solving for omega, Initial residual = 8.66272e-05, Final residual = 1.94958e-06, No Iterations 1
DILUPBiCGStab:  Solving for k, Initial residual = 0.0111384, Final residual = 0.000148075, No Iterations 1
ExecutionTime = 16.27 s  ClockTime = 17 s

Time = 45

DILUPBiCGStab:  Solving for h, Initial residual = 0.0102058, Final residual = 5.37392e-05, No Iterations 1
GAMG:  Solving for p_rgh, Initial residual = 0.00609254, Final residual = 3.70392e-05, No Iterations 2
time step continuity errors : sum local = 0.0040666, global = -7.3842e-18, cumulative = -8.03279e-17
rho min/max : 1.15145 1.22933
DILUPBiCGStab:  Solving for omega, Initial residual = 8.84053e-05, Final residual = 2.01778e-06, No Iterations 1
DILUPBiCGStab:  Solving for k, Initial residual = 0.0114654, Final residual = 0.000155043, No Iterations 1
ExecutionTime = 16.58 s  ClockTime = 17 s

Time = 46

DILUPBiCGStab:  Solving for h, Initial residual = 0.00996054, Final residual = 5.29269e-05, No Iterations 1
GAMG:  Solving for p_rgh, Initial residual = 0.00598057, Final residual = 3.55051e-05, No Iterations 2
time step continuity errors : sum local = 0.00388643, global = 2.07559e-17, cumulative = -5.95721e-17
rho min/max : 1.15104 1.2297
DILUPBiCGStab:  Solving for omega, Initial residual = 8.93446e-05, Final residual = 2.09082e-06, No Iterations 1
DILUPBiCGStab:  Solving for k, Initial residual = 0.0118712, Final residual = 0.000163963, No Iterations 1
ExecutionTime = 16.91 s  ClockTime = 18 s

Time = 47

DILUPBiCGStab:  Solving for h, Initial residual = 0.00972608, Final residual = 5.22984e-05, No Iterations 1
GAMG:  Solving for p_rgh, Initial residual = 0.0058645, Final residual = 4.36562e-05, No Iterations 2
time step continuity errors : sum local = 0.00475759, global = 2.84503e-18, cumulative = -5.6727e-17
rho min/max : 1.15064 1.23005
DILUPBiCGStab:  Solving for omega, Initial residual = 8.69949e-05, Final residual = 2.09457e-06, No Iterations 1
DILUPBiCGStab:  Solving for k, Initial residual = 0.0122738, Final residual = 0.000171653, No Iterations 1
ExecutionTime = 17.24 s  ClockTime = 18 s

Time = 48

DILUPBiCGStab:  Solving for h, Initial residual = 0.00950145, Final residual = 5.12108e-05, No Iterations 1
GAMG:  Solving for p_rgh, Initial residual = 0.00571409, Final residual = 5.02411e-05, No Iterations 2
time step continuity errors : sum local = 0.00546189, global = 1.55168e-17, cumulative = -4.12102e-17
rho min/max : 1.15036 1.2304
DILUPBiCGStab:  Solving for omega, Initial residual = 8.64432e-05, Final residual = 2.12295e-06, No Iterations 1
DILUPBiCGStab:  Solving for k, Initial residual = 0.012654, Final residual = 0.000177813, No Iterations 1
ExecutionTime = 17.53 s  ClockTime = 18 s

Time = 49

DILUPBiCGStab:  Solving for h, Initial residual = 0.00927772, Final residual = 5.0466e-05, No Iterations 1
GAMG:  Solving for p_rgh, Initial residual = 0.00565815, Final residual = 5.14274e-05, No Iterations 2
time step continuity errors : sum local = 0.00556805, global = -2.75508e-17, cumulative = -6.8761e-17
rho min/max : 1.15005 1.23122
DILUPBiCGStab:  Solving for omega, Initial residual = 8.54759e-05, Final residual = 2.1318e-06, No Iterations 1
DILUPBiCGStab:  Solving for k, Initial residual = 0.0130168, Final residual = 0.000182981, No Iterations 1
ExecutionTime = 17.85 s  ClockTime = 19 s

Time = 50

DILUPBiCGStab:  Solving for h, Initial residual = 0.0090659, Final residual = 4.9765e-05, No Iterations 1
GAMG:  Solving for p_rgh, Initial residual = 0.00565404, Final residual = 4.75417e-05, No Iterations 2
time step continuity errors : sum local = 0.00512639, global = -8.45031e-18, cumulative = -7.72113e-17
rho min/max : 1.14968 1.23229
DILUPBiCGStab:  Solving for omega, Initial residual = 8.6085e-05, Final residual = 2.19241e-06, No Iterations 1
DILUPBiCGStab:  Solving for k, Initial residual = 0.013385, Final residual = 0.000187467, No Iterations 1
ExecutionTime = 18.99 s  ClockTime = 20 s

Time = 51

DILUPBiCGStab:  Solving for h, Initial residual = 0.00886523, Final residual = 4.8831e-05, No Iterations 1
GAMG:  Solving for p_rgh, Initial residual = 0.00559971, Final residual = 4.14969e-05, No Iterations 2
time step continuity errors : sum local = 0.00446254, global = 7.58021e-18, cumulative = -6.96311e-17
rho min/max : 1.14935 1.23289
DILUPBiCGStab:  Solving for omega, Initial residual = 8.51029e-05, Final residual = 2.19159e-06, No Iterations 1
DILUPBiCGStab:  Solving for k, Initial residual = 0.0137552, Final residual = 0.000192074, No Iterations 1
ExecutionTime = 19.32 s  ClockTime = 21 s

Time = 52

DILUPBiCGStab:  Solving for h, Initial residual = 0.00867288, Final residual = 4.84195e-05, No Iterations 1
GAMG:  Solving for p_rgh, Initial residual = 0.00548926, Final residual = 3.6096e-05, No Iterations 2
time step continuity errors : sum local = 0.00385774, global = 9.68664e-18, cumulative = -5.99445e-17
rho min/max : 1.14906 1.23329
DILUPBiCGStab:  Solving for omega, Initial residual = 8.46235e-05, Final residual = 2.2333e-06, No Iterations 1
DILUPBiCGStab:  Solving for k, Initial residual = 0.0141215, Final residual = 0.000196407, No Iterations 1
ExecutionTime = 19.63 s  ClockTime = 21 s

Time = 53

DILUPBiCGStab:  Solving for h, Initial residual = 0.00848411, Final residual = 4.78006e-05, No Iterations 1
GAMG:  Solving for p_rgh, Initial residual = 0.00546882, Final residual = 3.66021e-05, No Iterations 2
time step continuity errors : sum local = 0.00387773, global = 1.06304e-17, cumulative = -4.9314e-17
rho min/max : 1.14877 1.23322
DILUPBiCGStab:  Solving for omega, Initial residual = 8.66263e-05, Final residual = 2.2996e-06, No Iterations 1
DILUPBiCGStab:  Solving for k, Initial residual = 0.0144752, Final residual = 0.000200636, No Iterations 1
ExecutionTime = 19.94 s  ClockTime = 21 s

Time = 54

DILUPBiCGStab:  Solving for h, Initial residual = 0.00829937, Final residual = 4.69115e-05, No Iterations 1
GAMG:  Solving for p_rgh, Initial residual = 0.0054126, Final residual = 4.45478e-05, No Iterations 2
time step continuity errors : sum local = 0.00475642, global = -8.25122e-18, cumulative = -5.75652e-17
rho min/max : 1.14847 1.23261
DILUPBiCGStab:  Solving for omega, Initial residual = 8.73659e-05, Final residual = 2.37381e-06, No Iterations 1
DILUPBiCGStab:  Solving for k, Initial residual = 0.0148284, Final residual = 0.000205063, No Iterations 1
ExecutionTime = 20.25 s  ClockTime = 22 s

Time = 55

DILUPBiCGStab:  Solving for h, Initial residual = 0.00812902, Final residual = 4.61777e-05, No Iterations 1
GAMG:  Solving for p_rgh, Initial residual = 0.00538038, Final residual = 3.84429e-05, No Iterations 4
time step continuity errors : sum local = 0.00404225, global = -4.73149e-18, cumulative = -6.22967e-17
rho min/max : 1.14819 1.23252
DILUPBiCGStab:  Solving for omega, Initial residual = 8.64716e-05, Final residual = 2.34405e-06, No Iterations 1
DILUPBiCGStab:  Solving for k, Initial residual = 0.0151402, Final residual = 0.000211295, No Iterations 1
ExecutionTime = 20.6 s  ClockTime = 22 s

Time = 56

DILUPBiCGStab:  Solving for h, Initial residual = 0.00796151, Final residual = 4.55729e-05, No Iterations 1
GAMG:  Solving for p_rgh, Initial residual = 0.00535455, Final residual = 2.86771e-05, No Iterations 2
time step continuity errors : sum local = 0.00305234, global = -6.23819e-18, cumulative = -6.85349e-17
rho min/max : 1.14793 1.23284
DILUPBiCGStab:  Solving for omega, Initial residual = 8.66176e-05, Final residual = 2.38582e-06, No Iterations 1
DILUPBiCGStab:  Solving for k, Initial residual = 0.0155164, Final residual = 0.000221926, No Iterations 1
ExecutionTime = 20.91 s  ClockTime = 22 s

Time = 57

DILUPBiCGStab:  Solving for h, Initial residual = 0.00780102, Final residual = 4.47607e-05, No Iterations 1
GAMG:  Solving for p_rgh, Initial residual = 0.00536948, Final residual = 3.17595e-05, No Iterations 2
time step continuity errors : sum local = 0.00334569, global = 5.70605e-18, cumulative = -6.28289e-17
rho min/max : 1.14768 1.23316
DILUPBiCGStab:  Solving for omega, Initial residual = 8.5605e-05, Final residual = 2.39481e-06, No Iterations 1
DILUPBiCGStab:  Solving for k, Initial residual = 0.0159961, Final residual = 0.000233571, No Iterations 1
ExecutionTime = 21.19 s  ClockTime = 23 s

Time = 58

DILUPBiCGStab:  Solving for h, Initial residual = 0.00764415, Final residual = 4.40359e-05, No Iterations 1
GAMG:  Solving for p_rgh, Initial residual = 0.00534347, Final residual = 4.02146e-05, No Iterations 2
time step continuity errors : sum local = 0.00421806, global = -2.22073e-18, cumulative = -6.50496e-17
rho min/max : 1.14753 1.23347
DILUPBiCGStab:  Solving for omega, Initial residual = 8.4414e-05, Final residual = 2.43112e-06, No Iterations 1
DILUPBiCGStab:  Solving for k, Initial residual = 0.0164656, Final residual = 0.000243839, No Iterations 1
ExecutionTime = 21.52 s  ClockTime = 23 s

Time = 59

DILUPBiCGStab:  Solving for h, Initial residual = 0.00749437, Final residual = 4.3183e-05, No Iterations 1
GAMG:  Solving for p_rgh, Initial residual = 0.00525871, Final residual = 4.5543e-05, No Iterations 2
time step continuity errors : sum local = 0.00477303, global = -8.54617e-18, cumulative = -7.35958e-17
rho min/max : 1.14726 1.23378
DILUPBiCGStab:  Solving for omega, Initial residual = 8.32899e-05, Final residual = 2.44865e-06, No Iterations 1
DILUPBiCGStab:  Solving for k, Initial residual = 0.0168946, Final residual = 0.000252449, No Iterations 1
ExecutionTime = 21.84 s  ClockTime = 23 s

Time = 60

DILUPBiCGStab:  Solving for h, Initial residual = 0.00735043, Final residual = 4.26353e-05, No Iterations 1
GAMG:  Solving for p_rgh, Initial residual = 0.00522905, Final residual = 4.57207e-05, No Iterations 2
time step continuity errors : sum local = 0.00477907, global = -4.43654e-17, cumulative = -1.17961e-16
rho min/max : 1.14705 1.23409
DILUPBiCGStab:  Solving for omega, Initial residual = 8.37876e-05, Final residual = 2.50181e-06, No Iterations 1
DILUPBiCGStab:  Solving for k, Initial residual = 0.0173315, Final residual = 0.000261278, No Iterations 1
ExecutionTime = 22.16 s  ClockTime = 24 s

Time = 61

DILUPBiCGStab:  Solving for h, Initial residual = 0.00721015, Final residual = 4.2109e-05, No Iterations 1
GAMG:  Solving for p_rgh, Initial residual = 0.00522916, Final residual = 4.57861e-05, No Iterations 2
time step continuity errors : sum local = 0.00475703, global = -1.61092e-17, cumulative = -1.3407e-16
rho min/max : 1.14681 1.23441
DILUPBiCGStab:  Solving for omega, Initial residual = 8.56652e-05, Final residual = 2.61119e-06, No Iterations 1
DILUPBiCGStab:  Solving for k, Initial residual = 0.0178206, Final residual = 0.00026975, No Iterations 1
ExecutionTime = 22.46 s  ClockTime = 24 s

Time = 62

DILUPBiCGStab:  Solving for h, Initial residual = 0.00707984, Final residual = 4.15017e-05, No Iterations 1
GAMG:  Solving for p_rgh, Initial residual = 0.00515205, Final residual = 4.61308e-05, No Iterations 2
time step continuity errors : sum local = 0.00477306, global = -3.96535e-17, cumulative = -1.73724e-16
rho min/max : 1.1465 1.23474
DILUPBiCGStab:  Solving for omega, Initial residual = 8.69643e-05, Final residual = 2.65076e-06, No Iterations 1
DILUPBiCGStab:  Solving for k, Initial residual = 0.0183539, Final residual = 0.000279171, No Iterations 1
ExecutionTime = 22.77 s  ClockTime = 24 s

Time = 63

DILUPBiCGStab:  Solving for h, Initial residual = 0.00694571, Final residual = 4.06899e-05, No Iterations 1
GAMG:  Solving for p_rgh, Initial residual = 0.00513403, Final residual = 4.62797e-05, No Iterations 2
time step continuity errors : sum local = 0.00478261, global = 1.10139e-17, cumulative = -1.6271e-16
rho min/max : 1.14623 1.23506
DILUPBiCGStab:  Solving for omega, Initial residual = 8.60446e-05, Final residual = 2.65936e-06, No Iterations 1
DILUPBiCGStab:  Solving for k, Initial residual = 0.018919, Final residual = 0.000289622, No Iterations 1
ExecutionTime = 23.08 s  ClockTime = 25 s

Time = 64

DILUPBiCGStab:  Solving for h, Initial residual = 0.00681771, Final residual = 4.00267e-05, No Iterations 1
GAMG:  Solving for p_rgh, Initial residual = 0.00515187, Final residual = 4.59141e-05, No Iterations 2
time step continuity errors : sum local = 0.00472118, global = -4.08751e-18, cumulative = -1.66798e-16
rho min/max : 1.14595 1.23537
DILUPBiCGStab:  Solving for omega, Initial residual = 8.64034e-05, Final residual = 2.73925e-06, No Iterations 1
DILUPBiCGStab:  Solving for k, Initial residual = 0.0195069, Final residual = 0.000300506, No Iterations 1
ExecutionTime = 23.39 s  ClockTime = 25 s

Time = 65

DILUPBiCGStab:  Solving for h, Initial residual = 0.00669996, Final residual = 3.96894e-05, No Iterations 1
GAMG:  Solving for p_rgh, Initial residual = 0.00516576, Final residual = 4.58648e-05, No Iterations 2
time step continuity errors : sum local = 0.00470465, global = 7.26806e-18, cumulative = -1.59529e-16
rho min/max : 1.14573 1.23567
DILUPBiCGStab:  Solving for omega, Initial residual = 8.53746e-05, Final residual = 2.72762e-06, No Iterations 1
DILUPBiCGStab:  Solving for k, Initial residual = 0.0201151, Final residual = 0.000311971, No Iterations 1
ExecutionTime = 23.7 s  ClockTime = 25 s

Time = 66

DILUPBiCGStab:  Solving for h, Initial residual = 0.00657889, Final residual = 3.92776e-05, No Iterations 1
GAMG:  Solving for p_rgh, Initial residual = 0.00509537, Final residual = 4.54614e-05, No Iterations 2
time step continuity errors : sum local = 0.00464194, global = 1.99312e-17, cumulative = -1.39598e-16
rho min/max : 1.14549 1.23599
DILUPBiCGStab:  Solving for omega, Initial residual = 8.60652e-05, Final residual = 2.86904e-06, No Iterations 1
DILUPBiCGStab:  Solving for k, Initial residual = 0.0207859, Final residual = 0.000324595, No Iterations 1
ExecutionTime = 24.06 s  ClockTime = 26 s

Time = 67

DILUPBiCGStab:  Solving for h, Initial residual = 0.00646423, Final residual = 3.8205e-05, No Iterations 1
GAMG:  Solving for p_rgh, Initial residual = 0.00507217, Final residual = 4.59482e-05, No Iterations 2
time step continuity errors : sum local = 0.00468141, global = -6.94849e-18, cumulative = -1.46547e-16
rho min/max : 1.14518 1.23629
DILUPBiCGStab:  Solving for omega, Initial residual = 8.6041e-05, Final residual = 2.82067e-06, No Iterations 1
DILUPBiCGStab:  Solving for k, Initial residual = 0.0215114, Final residual = 0.000338487, No Iterations 1
ExecutionTime = 24.37 s  ClockTime = 26 s

Time = 68

DILUPBiCGStab:  Solving for h, Initial residual = 0.00635267, Final residual = 3.79166e-05, No Iterations 1
GAMG:  Solving for p_rgh, Initial residual = 0.00510887, Final residual = 4.60631e-05, No Iterations 2
time step continuity errors : sum local = 0.00468105, global = -1.54259e-17, cumulative = -1.61973e-16
rho min/max : 1.14496 1.23659
DILUPBiCGStab:  Solving for omega, Initial residual = 8.60916e-05, Final residual = 2.94522e-06, No Iterations 1
DILUPBiCGStab:  Solving for k, Initial residual = 0.0222968, Final residual = 0.000352626, No Iterations 1
ExecutionTime = 24.71 s  ClockTime = 26 s

Time = 69

DILUPBiCGStab:  Solving for h, Initial residual = 0.00624499, Final residual = 3.73853e-05, No Iterations 1
GAMG:  Solving for p_rgh, Initial residual = 0.00506485, Final residual = 4.56767e-05, No Iterations 2
time step continuity errors : sum local = 0.00461273, global = 2.25145e-17, cumulative = -1.39458e-16
rho min/max : 1.14469 1.23686
DILUPBiCGStab:  Solving for omega, Initial residual = 8.62114e-05, Final residual = 2.90783e-06, No Iterations 1
DILUPBiCGStab:  Solving for k, Initial residual = 0.0231569, Final residual = 0.000369218, No Iterations 1
ExecutionTime = 25.02 s  ClockTime = 27 s

Time = 70

DILUPBiCGStab:  Solving for h, Initial residual = 0.00614668, Final residual = 3.70206e-05, No Iterations 1
GAMG:  Solving for p_rgh, Initial residual = 0.00507829, Final residual = 4.54445e-05, No Iterations 2
time step continuity errors : sum local = 0.00458048, global = 4.66832e-17, cumulative = -9.27749e-17
rho min/max : 1.14446 1.23713
DILUPBiCGStab:  Solving for omega, Initial residual = 8.63393e-05, Final residual = 2.99213e-06, No Iterations 1
DILUPBiCGStab:  Solving for k, Initial residual = 0.0240688, Final residual = 0.000386057, No Iterations 1
ExecutionTime = 25.32 s  ClockTime = 27 s

Time = 71

DILUPBiCGStab:  Solving for h, Initial residual = 0.006047, Final residual = 3.64889e-05, No Iterations 1
GAMG:  Solving for p_rgh, Initial residual = 0.00502312, Final residual = 4.49942e-05, No Iterations 2
time step continuity errors : sum local = 0.00450948, global = 3.67925e-17, cumulative = -5.59824e-17
rho min/max : 1.14424 1.23738
DILUPBiCGStab:  Solving for omega, Initial residual = 8.64107e-05, Final residual = 2.98336e-06, No Iterations 1
DILUPBiCGStab:  Solving for k, Initial residual = 0.0250749, Final residual = 0.000403819, No Iterations 1
ExecutionTime = 25.62 s  ClockTime = 27 s

Time = 72

DILUPBiCGStab:  Solving for h, Initial residual = 0.00595042, Final residual = 3.61382e-05, No Iterations 1
GAMG:  Solving for p_rgh, Initial residual = 0.00500413, Final residual = 4.42016e-05, No Iterations 2
time step continuity errors : sum local = 0.00442107, global = -2.19492e-18, cumulative = -5.81773e-17
rho min/max : 1.14397 1.23762
DILUPBiCGStab:  Solving for omega, Initial residual = 8.62893e-05, Final residual = 3.07851e-06, No Iterations 1
DILUPBiCGStab:  Solving for k, Initial residual = 0.0261762, Final residual = 0.000423617, No Iterations 1
ExecutionTime = 25.96 s  ClockTime = 28 s

Time = 73

DILUPBiCGStab:  Solving for h, Initial residual = 0.00585572, Final residual = 3.56655e-05, No Iterations 1
GAMG:  Solving for p_rgh, Initial residual = 0.00499814, Final residual = 4.34341e-05, No Iterations 2
time step continuity errors : sum local = 0.00433221, global = 1.50719e-17, cumulative = -4.31054e-17
rho min/max : 1.14372 1.23792
DILUPBiCGStab:  Solving for omega, Initial residual = 8.67285e-05, Final residual = 3.08952e-06, No Iterations 1
DILUPBiCGStab:  Solving for k, Initial residual = 0.0273851, Final residual = 0.000445983, No Iterations 1
ExecutionTime = 26.27 s  ClockTime = 28 s

Time = 74

DILUPBiCGStab:  Solving for h, Initial residual = 0.00576741, Final residual = 3.52249e-05, No Iterations 1
GAMG:  Solving for p_rgh, Initial residual = 0.00496059, Final residual = 4.25864e-05, No Iterations 2
time step continuity errors : sum local = 0.00422676, global = 3.68197e-18, cumulative = -3.94234e-17
rho min/max : 1.14346 1.23823
DILUPBiCGStab:  Solving for omega, Initial residual = 8.73142e-05, Final residual = 3.21033e-06, No Iterations 1
DILUPBiCGStab:  Solving for k, Initial residual = 0.0286252, Final residual = 0.000467706, No Iterations 1
ExecutionTime = 26.58 s  ClockTime = 28 s

Time = 75

DILUPBiCGStab:  Solving for h, Initial residual = 0.00567777, Final residual = 3.47833e-05, No Iterations 1
GAMG:  Solving for p_rgh, Initial residual = 0.00496901, Final residual = 4.19414e-05, No Iterations 2
time step continuity errors : sum local = 0.00413043, global = -3.46566e-19, cumulative = -3.977e-17
rho min/max : 1.14321 1.2385
DILUPBiCGStab:  Solving for omega, Initial residual = 8.6853e-05, Final residual = 3.14355e-06, No Iterations 1
DILUPBiCGStab:  Solving for k, Initial residual = 0.0293346, Final residual = 0.000483192, No Iterations 1
ExecutionTime = 26.89 s  ClockTime = 29 s

Time = 76

DILUPBiCGStab:  Solving for h, Initial residual = 0.00558993, Final residual = 3.45525e-05, No Iterations 1
GAMG:  Solving for p_rgh, Initial residual = 0.00496558, Final residual = 4.16721e-05, No Iterations 2
time step continuity errors : sum local = 0.00410857, global = -2.43555e-17, cumulative = -6.41254e-17
rho min/max : 1.14293 1.23879
DILUPBiCGStab:  Solving for omega, Initial residual = 8.7279e-05, Final residual = 3.29779e-06, No Iterations 1
DILUPBiCGStab:  Solving for k, Initial residual = 0.0293009, Final residual = 0.00048583, No Iterations 1
ExecutionTime = 27.22 s  ClockTime = 29 s

Time = 77

DILUPBiCGStab:  Solving for h, Initial residual = 0.00550857, Final residual = 3.39302e-05, No Iterations 1
GAMG:  Solving for p_rgh, Initial residual = 0.00490275, Final residual = 4.12865e-05, No Iterations 2
time step continuity errors : sum local = 0.00407372, global = -4.47906e-17, cumulative = -1.08916e-16
rho min/max : 1.14267 1.23909
DILUPBiCGStab:  Solving for omega, Initial residual = 8.74698e-05, Final residual = 3.2431e-06, No Iterations 1
DILUPBiCGStab:  Solving for k, Initial residual = 0.0289523, Final residual = 0.000484074, No Iterations 1
ExecutionTime = 27.52 s  ClockTime = 29 s

Time = 78

DILUPBiCGStab:  Solving for h, Initial residual = 0.00542896, Final residual = 3.35121e-05, No Iterations 1
GAMG:  Solving for p_rgh, Initial residual = 0.00488578, Final residual = 4.04002e-05, No Iterations 2
time step continuity errors : sum local = 0.00399045, global = -1.92774e-17, cumulative = -1.28193e-16
rho min/max : 1.14241 1.23936
DILUPBiCGStab:  Solving for omega, Initial residual = 8.68565e-05, Final residual = 3.37501e-06, No Iterations 1
DILUPBiCGStab:  Solving for k, Initial residual = 0.0284322, Final residual = 0.000479053, No Iterations 1
ExecutionTime = 27.82 s  ClockTime = 29 s

Time = 79

DILUPBiCGStab:  Solving for h, Initial residual = 0.00534925, Final residual = 3.30463e-05, No Iterations 1
GAMG:  Solving for p_rgh, Initial residual = 0.00489451, Final residual = 3.96922e-05, No Iterations 2
time step continuity errors : sum local = 0.00390036, global = -1.68611e-18, cumulative = -1.2988e-16
rho min/max : 1.14216 1.2396
DILUPBiCGStab:  Solving for omega, Initial residual = 8.75156e-05, Final residual = 3.30423e-06, No Iterations 1
DILUPBiCGStab:  Solving for k, Initial residual = 0.027745, Final residual = 0.000470189, No Iterations 1
ExecutionTime = 28.11 s  ClockTime = 30 s

Time = 80

DILUPBiCGStab:  Solving for h, Initial residual = 0.00527381, Final residual = 3.28248e-05, No Iterations 1
GAMG:  Solving for p_rgh, Initial residual = 0.00489207, Final residual = 4.00099e-05, No Iterations 2
time step continuity errors : sum local = 0.00394006, global = 2.78482e-17, cumulative = -1.02031e-16
rho min/max : 1.1419 1.23986
DILUPBiCGStab:  Solving for omega, Initial residual = 8.86715e-05, Final residual = 3.44457e-06, No Iterations 1
DILUPBiCGStab:  Solving for k, Initial residual = 0.0270427, Final residual = 0.000463718, No Iterations 1
ExecutionTime = 28.44 s  ClockTime = 30 s

Time = 81

DILUPBiCGStab:  Solving for h, Initial residual = 0.0051955, Final residual = 3.23199e-05, No Iterations 1
GAMG:  Solving for p_rgh, Initial residual = 0.00485814, Final residual = 3.97259e-05, No Iterations 2
time step continuity errors : sum local = 0.00389104, global = 1.39327e-17, cumulative = -8.80987e-17
rho min/max : 1.14163 1.24011
DILUPBiCGStab:  Solving for omega, Initial residual = 8.80901e-05, Final residual = 3.34839e-06, No Iterations 1
DILUPBiCGStab:  Solving for k, Initial residual = 0.0263708, Final residual = 0.000455453, No Iterations 1
ExecutionTime = 28.74 s  ClockTime = 30 s

Time = 82

DILUPBiCGStab:  Solving for h, Initial residual = 0.00512469, Final residual = 3.19644e-05, No Iterations 1
GAMG:  Solving for p_rgh, Initial residual = 0.0048486, Final residual = 4.04851e-05, No Iterations 2
time step continuity errors : sum local = 0.00395885, global = 7.01489e-18, cumulative = -8.10838e-17
rho min/max : 1.14138 1.24089
DILUPBiCGStab:  Solving for omega, Initial residual = 8.67596e-05, Final residual = 3.44111e-06, No Iterations 1
DILUPBiCGStab:  Solving for k, Initial residual = 0.0257045, Final residual = 0.000449591, No Iterations 1
ExecutionTime = 29.05 s  ClockTime = 31 s

Time = 83

DILUPBiCGStab:  Solving for h, Initial residual = 0.00505029, Final residual = 3.15564e-05, No Iterations 1
GAMG:  Solving for p_rgh, Initial residual = 0.00479528, Final residual = 4.26724e-05, No Iterations 2
time step continuity errors : sum local = 0.00416854, global = 3.90784e-17, cumulative = -4.20054e-17
rho min/max : 1.14112 1.24197
DILUPBiCGStab:  Solving for omega, Initial residual = 8.73047e-05, Final residual = 3.39835e-06, No Iterations 1
DILUPBiCGStab:  Solving for k, Initial residual = 0.0250288, Final residual = 0.000442547, No Iterations 1
ExecutionTime = 29.35 s  ClockTime = 31 s

Time = 84

DILUPBiCGStab:  Solving for h, Initial residual = 0.00497791, Final residual = 3.121e-05, No Iterations 1
GAMG:  Solving for p_rgh, Initial residual = 0.00478075, Final residual = 4.33809e-05, No Iterations 2
time step continuity errors : sum local = 0.0042182, global = -2.29717e-17, cumulative = -6.49771e-17
rho min/max : 1.14087 1.24321
DILUPBiCGStab:  Solving for omega, Initial residual = 8.71241e-05, Final residual = 3.4428e-06, No Iterations 1
DILUPBiCGStab:  Solving for k, Initial residual = 0.0243773, Final residual = 0.000436328, No Iterations 1
ExecutionTime = 29.66 s  ClockTime = 31 s

Time = 85

DILUPBiCGStab:  Solving for h, Initial residual = 0.00491052, Final residual = 3.08285e-05, No Iterations 1
GAMG:  Solving for p_rgh, Initial residual = 0.00472277, Final residual = 4.44722e-05, No Iterations 2
time step continuity errors : sum local = 0.00430988, global = -4.7627e-17, cumulative = -1.12604e-16
rho min/max : 1.14061 1.24403
DILUPBiCGStab:  Solving for omega, Initial residual = 8.71737e-05, Final residual = 3.45469e-06, No Iterations 1
DILUPBiCGStab:  Solving for k, Initial residual = 0.0237322, Final residual = 0.00043116, No Iterations 1
ExecutionTime = 29.97 s  ClockTime = 32 s

Time = 86

DILUPBiCGStab:  Solving for h, Initial residual = 0.00484367, Final residual = 3.03921e-05, No Iterations 1
GAMG:  Solving for p_rgh, Initial residual = 0.00477199, Final residual = 4.5363e-05, No Iterations 2
time step continuity errors : sum local = 0.00437586, global = 1.35947e-17, cumulative = -9.90094e-17
rho min/max : 1.14033 1.24464
DILUPBiCGStab:  Solving for omega, Initial residual = 8.71086e-05, Final residual = 3.56565e-06, No Iterations 1
DILUPBiCGStab:  Solving for k, Initial residual = 0.0230929, Final residual = 0.000426588, No Iterations 1
ExecutionTime = 30.27 s  ClockTime = 32 s

Time = 87

DILUPBiCGStab:  Solving for h, Initial residual = 0.00477824, Final residual = 3.01353e-05, No Iterations 1
GAMG:  Solving for p_rgh, Initial residual = 0.00477531, Final residual = 4.60327e-05, No Iterations 2
time step continuity errors : sum local = 0.00442118, global = -1.06932e-17, cumulative = -1.09703e-16
rho min/max : 1.14007 1.24498
DILUPBiCGStab:  Solving for omega, Initial residual = 8.69201e-05, Final residual = 3.5601e-06, No Iterations 1
DILUPBiCGStab:  Solving for k, Initial residual = 0.0224681, Final residual = 0.000423707, No Iterations 1
ExecutionTime = 30.56 s  ClockTime = 32 s

Time = 88

DILUPBiCGStab:  Solving for h, Initial residual = 0.00471133, Final residual = 2.95583e-05, No Iterations 1
GAMG:  Solving for p_rgh, Initial residual = 0.00471778, Final residual = 4.5609e-05, No Iterations 2
time step continuity errors : sum local = 0.00437221, global = -8.89274e-18, cumulative = -1.18595e-16
rho min/max : 1.1398 1.24528
DILUPBiCGStab:  Solving for omega, Initial residual = 8.76429e-05, Final residual = 3.61317e-06, No Iterations 1
DILUPBiCGStab:  Solving for k, Initial residual = 0.0218477, Final residual = 0.000419493, No Iterations 1
ExecutionTime = 30.86 s  ClockTime = 33 s

Time = 89

DILUPBiCGStab:  Solving for h, Initial residual = 0.00464889, Final residual = 2.93835e-05, No Iterations 1
GAMG:  Solving for p_rgh, Initial residual = 0.00470655, Final residual = 4.45401e-05, No Iterations 2
time step continuity errors : sum local = 0.0042558, global = -1.35136e-17, cumulative = -1.32109e-16
rho min/max : 1.13954 1.24545
DILUPBiCGStab:  Solving for omega, Initial residual = 8.79809e-05, Final residual = 3.50758e-06, No Iterations 1
DILUPBiCGStab:  Solving for k, Initial residual = 0.0212324, Final residual = 0.000417073, No Iterations 1
ExecutionTime = 31.18 s  ClockTime = 33 s

Time = 90

DILUPBiCGStab:  Solving for h, Initial residual = 0.00458726, Final residual = 2.89466e-05, No Iterations 1
GAMG:  Solving for p_rgh, Initial residual = 0.00471921, Final residual = 4.28191e-05, No Iterations 2
time step continuity errors : sum local = 0.00406611, global = -1.5888e-17, cumulative = -1.47997e-16
rho min/max : 1.13929 1.24554
DILUPBiCGStab:  Solving for omega, Initial residual = 8.70059e-05, Final residual = 3.5631e-06, No Iterations 1
DILUPBiCGStab:  Solving for k, Initial residual = 0.0206345, Final residual = 0.000416506, No Iterations 1
ExecutionTime = 31.48 s  ClockTime = 33 s

Time = 91

DILUPBiCGStab:  Solving for h, Initial residual = 0.00452563, Final residual = 2.86347e-05, No Iterations 1
GAMG:  Solving for p_rgh, Initial residual = 0.00464845, Final residual = 4.06891e-05, No Iterations 2
time step continuity errors : sum local = 0.00385119, global = 4.25709e-18, cumulative = -1.4374e-16
rho min/max : 1.13904 1.24548
DILUPBiCGStab:  Solving for omega, Initial residual = 8.71322e-05, Final residual = 3.51792e-06, No Iterations 1
DILUPBiCGStab:  Solving for k, Initial residual = 0.0200622, Final residual = 0.000414693, No Iterations 1
ExecutionTime = 31.8 s  ClockTime = 33 s

Time = 92

DILUPBiCGStab:  Solving for h, Initial residual = 0.00446756, Final residual = 2.82909e-05, No Iterations 1
GAMG:  Solving for p_rgh, Initial residual = 0.00465207, Final residual = 3.97289e-05, No Iterations 2
time step continuity errors : sum local = 0.00374399, global = 8.36672e-18, cumulative = -1.35373e-16
rho min/max : 1.13881 1.24528
DILUPBiCGStab:  Solving for omega, Initial residual = 8.71081e-05, Final residual = 3.61636e-06, No Iterations 1
DILUPBiCGStab:  Solving for k, Initial residual = 0.0195591, Final residual = 0.000413127, No Iterations 1
ExecutionTime = 32.09 s  ClockTime = 34 s

Time = 93

DILUPBiCGStab:  Solving for h, Initial residual = 0.00440938, Final residual = 2.80068e-05, No Iterations 1
GAMG:  Solving for p_rgh, Initial residual = 0.00464088, Final residual = 3.85906e-05, No Iterations 2
time step continuity errors : sum local = 0.00363197, global = 1.32162e-17, cumulative = -1.22157e-16
rho min/max : 1.13859 1.24489
DILUPBiCGStab:  Solving for omega, Initial residual = 8.78795e-05, Final residual = 3.55229e-06, No Iterations 1
DILUPBiCGStab:  Solving for k, Initial residual = 0.0190923, Final residual = 0.000415047, No Iterations 1
ExecutionTime = 32.39 s  ClockTime = 34 s

Time = 94

DILUPBiCGStab:  Solving for h, Initial residual = 0.00435618, Final residual = 2.78082e-05, No Iterations 1
GAMG:  Solving for p_rgh, Initial residual = 0.00463527, Final residual = 3.68691e-05, No Iterations 2
time step continuity errors : sum local = 0.00348511, global = 7.14022e-18, cumulative = -1.15017e-16
rho min/max : 1.13836 1.24431
DILUPBiCGStab:  Solving for omega, Initial residual = 8.8276e-05, Final residual = 3.64278e-06, No Iterations 1
DILUPBiCGStab:  Solving for k, Initial residual = 0.0187078, Final residual = 0.000416881, No Iterations 1
ExecutionTime = 32.71 s  ClockTime = 34 s

Time = 95

DILUPBiCGStab:  Solving for h, Initial residual = 0.00430772, Final residual = 2.75209e-05, No Iterations 1
GAMG:  Solving for p_rgh, Initial residual = 0.00456673, Final residual = 3.29777e-05, No Iterations 2
time step continuity errors : sum local = 0.00311205, global = 1.69326e-17, cumulative = -9.8084e-17
rho min/max : 1.13814 1.24388
DILUPBiCGStab:  Solving for omega, Initial residual = 8.91174e-05, Final residual = 3.63208e-06, No Iterations 1
DILUPBiCGStab:  Solving for k, Initial residual = 0.0183175, Final residual = 0.000420836, No Iterations 1
ExecutionTime = 33.02 s  ClockTime = 35 s

Time = 96

DILUPBiCGStab:  Solving for h, Initial residual = 0.00425057, Final residual = 2.72287e-05, No Iterations 1
GAMG:  Solving for p_rgh, Initial residual = 0.0045259, Final residual = 2.91491e-05, No Iterations 2
time step continuity errors : sum local = 0.00275548, global = -2.62702e-17, cumulative = -1.24354e-16
rho min/max : 1.13791 1.24413
DILUPBiCGStab:  Solving for omega, Initial residual = 8.99198e-05, Final residual = 3.54228e-06, No Iterations 1
DILUPBiCGStab:  Solving for k, Initial residual = 0.0179734, Final residual = 0.000425563, No Iterations 1
ExecutionTime = 33.32 s  ClockTime = 35 s

Time = 97

DILUPBiCGStab:  Solving for h, Initial residual = 0.00419778, Final residual = 2.6739e-05, No Iterations 1
GAMG:  Solving for p_rgh, Initial residual = 0.00449638, Final residual = 2.65914e-05, No Iterations 2
time step continuity errors : sum local = 0.00250732, global = 2.45644e-17, cumulative = -9.97898e-17
rho min/max : 1.13769 1.24438
DILUPBiCGStab:  Solving for omega, Initial residual = 8.89298e-05, Final residual = 3.50165e-06, No Iterations 1
DILUPBiCGStab:  Solving for k, Initial residual = 0.0176575, Final residual = 0.000428407, No Iterations 1
ExecutionTime = 33.63 s  ClockTime = 35 s

Time = 98

DILUPBiCGStab:  Solving for h, Initial residual = 0.00414853, Final residual = 2.65499e-05, No Iterations 1
GAMG:  Solving for p_rgh, Initial residual = 0.00451618, Final residual = 2.6522e-05, No Iterations 2
time step continuity errors : sum local = 0.00251942, global = -1.96953e-17, cumulative = -1.19485e-16
rho min/max : 1.13747 1.24463
DILUPBiCGStab:  Solving for omega, Initial residual = 8.85248e-05, Final residual = 3.51774e-06, No Iterations 1
DILUPBiCGStab:  Solving for k, Initial residual = 0.0173803, Final residual = 0.000436731, No Iterations 1
ExecutionTime = 33.96 s  ClockTime = 36 s

Time = 99

DILUPBiCGStab:  Solving for h, Initial residual = 0.00410111, Final residual = 2.62407e-05, No Iterations 1
GAMG:  Solving for p_rgh, Initial residual = 0.00448519, Final residual = 2.58117e-05, No Iterations 2
time step continuity errors : sum local = 0.0024283, global = -7.98832e-19, cumulative = -1.20284e-16
rho min/max : 1.13725 1.24488
DILUPBiCGStab:  Solving for omega, Initial residual = 8.93786e-05, Final residual = 3.53299e-06, No Iterations 1
DILUPBiCGStab:  Solving for k, Initial residual = 0.0171614, Final residual = 0.000445061, No Iterations 1
ExecutionTime = 34.24 s  ClockTime = 36 s

Time = 100

DILUPBiCGStab:  Solving for h, Initial residual = 0.00405361, Final residual = 2.60024e-05, No Iterations 1
GAMG:  Solving for p_rgh, Initial residual = 0.0044916, Final residual = 2.51949e-05, No Iterations 2
time step continuity errors : sum local = 0.00235431, global = -1.69842e-17, cumulative = -1.37268e-16
rho min/max : 1.13703 1.24512
DILUPBiCGStab:  Solving for omega, Initial residual = 8.97385e-05, Final residual = 3.6148e-06, No Iterations 1
DILUPBiCGStab:  Solving for k, Initial residual = 0.0169491, Final residual = 0.000452208, No Iterations 1
ExecutionTime = 35.29 s  ClockTime = 38 s

Time = 101

DILUPBiCGStab:  Solving for h, Initial residual = 0.0040075, Final residual = 2.56497e-05, No Iterations 1
GAMG:  Solving for p_rgh, Initial residual = 0.00441746, Final residual = 2.62995e-05, No Iterations 2
time step continuity errors : sum local = 0.0024664, global = -1.66868e-17, cumulative = -1.53955e-16
rho min/max : 1.13681 1.24537
DILUPBiCGStab:  Solving for omega, Initial residual = 8.9567e-05, Final residual = 3.53275e-06, No Iterations 1
DILUPBiCGStab:  Solving for k, Initial residual = 0.0168178, Final residual = 0.000464953, No Iterations 1
ExecutionTime = 35.62 s  ClockTime = 38 s

Time = 102

DILUPBiCGStab:  Solving for h, Initial residual = 0.00396197, Final residual = 2.56377e-05, No Iterations 1
GAMG:  Solving for p_rgh, Initial residual = 0.00445512, Final residual = 2.67731e-05, No Iterations 2
time step continuity errors : sum local = 0.00248938, global = -1.25919e-17, cumulative = -1.66547e-16
rho min/max : 1.1366 1.24561
DILUPBiCGStab:  Solving for omega, Initial residual = 8.94345e-05, Final residual = 3.5779e-06, No Iterations 1
DILUPBiCGStab:  Solving for k, Initial residual = 0.0166731, Final residual = 0.00047292, No Iterations 1
ExecutionTime = 36.07 s  ClockTime = 39 s

Time = 103

DILUPBiCGStab:  Solving for h, Initial residual = 0.00391849, Final residual = 2.53325e-05, No Iterations 1
GAMG:  Solving for p_rgh, Initial residual = 0.00439282, Final residual = 3.04406e-05, No Iterations 2
time step continuity errors : sum local = 0.00284334, global = -2.75803e-17, cumulative = -1.94127e-16
rho min/max : 1.13639 1.24585
DILUPBiCGStab:  Solving for omega, Initial residual = 8.85458e-05, Final residual = 3.52438e-06, No Iterations 1
DILUPBiCGStab:  Solving for k, Initial residual = 0.0166443, Final residual = 0.000486353, No Iterations 1
ExecutionTime = 36.4 s  ClockTime = 39 s

Time = 104

DILUPBiCGStab:  Solving for h, Initial residual = 0.00387477, Final residual = 2.511e-05, No Iterations 1
GAMG:  Solving for p_rgh, Initial residual = 0.00431706, Final residual = 3.03843e-05, No Iterations 2
time step continuity errors : sum local = 0.00283066, global = 1.04941e-17, cumulative = -1.83633e-16
rho min/max : 1.13618 1.24608
DILUPBiCGStab:  Solving for omega, Initial residual = 8.94284e-05, Final residual = 3.62518e-06, No Iterations 1
DILUPBiCGStab:  Solving for k, Initial residual = 0.0166281, Final residual = 0.000495912, No Iterations 1
ExecutionTime = 36.69 s  ClockTime = 39 s

Time = 105

DILUPBiCGStab:  Solving for h, Initial residual = 0.00383205, Final residual = 2.46774e-05, No Iterations 1
GAMG:  Solving for p_rgh, Initial residual = 0.00435736, Final residual = 3.18664e-05, No Iterations 2
time step continuity errors : sum local = 0.00296205, global = 5.33368e-18, cumulative = -1.78299e-16
rho min/max : 1.13597 1.24632
DILUPBiCGStab:  Solving for omega, Initial residual = 9.02471e-05, Final residual = 3.66019e-06, No Iterations 1
DILUPBiCGStab:  Solving for k, Initial residual = 0.0166729, Final residual = 0.000511161, No Iterations 1
ExecutionTime = 37 s  ClockTime = 40 s

Time = 106

DILUPBiCGStab:  Solving for h, Initial residual = 0.00378936, Final residual = 2.4535e-05, No Iterations 1
GAMG:  Solving for p_rgh, Initial residual = 0.00434168, Final residual = 3.12155e-05, No Iterations 2
time step continuity errors : sum local = 0.00290776, global = -9.46298e-18, cumulative = -1.87762e-16
rho min/max : 1.13576 1.24655
DILUPBiCGStab:  Solving for omega, Initial residual = 9.04324e-05, Final residual = 3.71343e-06, No Iterations 1
DILUPBiCGStab:  Solving for k, Initial residual = 0.0167348, Final residual = 0.000526596, No Iterations 1
ExecutionTime = 37.33 s  ClockTime = 40 s

Time = 107

DILUPBiCGStab:  Solving for h, Initial residual = 0.00374873, Final residual = 2.4269e-05, No Iterations 1
GAMG:  Solving for p_rgh, Initial residual = 0.0042962, Final residual = 2.94086e-05, No Iterations 2
time step continuity errors : sum local = 0.0027257, global = -2.41367e-18, cumulative = -1.90176e-16
rho min/max : 1.13554 1.24678
DILUPBiCGStab:  Solving for omega, Initial residual = 9.1132e-05, Final residual = 3.71605e-06, No Iterations 1
DILUPBiCGStab:  Solving for k, Initial residual = 0.0168175, Final residual = 0.000540326, No Iterations 1
ExecutionTime = 37.64 s  ClockTime = 40 s

Time = 108

DILUPBiCGStab:  Solving for h, Initial residual = 0.00370913, Final residual = 2.40532e-05, No Iterations 1
GAMG:  Solving for p_rgh, Initial residual = 0.00423152, Final residual = 2.83741e-05, No Iterations 2
time step continuity errors : sum local = 0.00261653, global = -3.65517e-17, cumulative = -2.26728e-16
rho min/max : 1.13533 1.24702
DILUPBiCGStab:  Solving for omega, Initial residual = 9.15864e-05, Final residual = 3.7816e-06, No Iterations 1
DILUPBiCGStab:  Solving for k, Initial residual = 0.0169275, Final residual = 0.000554833, No Iterations 1
ExecutionTime = 37.95 s  ClockTime = 41 s

Time = 109

DILUPBiCGStab:  Solving for h, Initial residual = 0.0036695, Final residual = 2.37443e-05, No Iterations 1
GAMG:  Solving for p_rgh, Initial residual = 0.00423457, Final residual = 2.7901e-05, No Iterations 2
time step continuity errors : sum local = 0.00257061, global = -4.7192e-18, cumulative = -2.31447e-16
rho min/max : 1.13512 1.24725
DILUPBiCGStab:  Solving for omega, Initial residual = 9.14003e-05, Final residual = 3.75389e-06, No Iterations 1
DILUPBiCGStab:  Solving for k, Initial residual = 0.017074, Final residual = 0.000571674, No Iterations 1
ExecutionTime = 38.25 s  ClockTime = 41 s

Time = 110

DILUPBiCGStab:  Solving for h, Initial residual = 0.00363062, Final residual = 2.36175e-05, No Iterations 1
GAMG:  Solving for p_rgh, Initial residual = 0.00424309, Final residual = 2.74822e-05, No Iterations 2
time step continuity errors : sum local = 0.00252566, global = 4.37263e-18, cumulative = -2.27074e-16
rho min/max : 1.13491 1.24748
DILUPBiCGStab:  Solving for omega, Initial residual = 9.18207e-05, Final residual = 3.81465e-06, No Iterations 1
DILUPBiCGStab:  Solving for k, Initial residual = 0.0172723, Final residual = 0.000587185, No Iterations 1
ExecutionTime = 38.55 s  ClockTime = 41 s

Time = 111

DILUPBiCGStab:  Solving for h, Initial residual = 0.00359216, Final residual = 2.32793e-05, No Iterations 1
GAMG:  Solving for p_rgh, Initial residual = 0.00418495, Final residual = 2.78235e-05, No Iterations 2
time step continuity errors : sum local = 0.00254413, global = -1.79477e-17, cumulative = -2.45022e-16
rho min/max : 1.1347 1.24771
DILUPBiCGStab:  Solving for omega, Initial residual = 9.06116e-05, Final residual = 3.76381e-06, No Iterations 1
DILUPBiCGStab:  Solving for k, Initial residual = 0.0174895, Final residual = 0.000608086, No Iterations 1
ExecutionTime = 38.83 s  ClockTime = 42 s

Time = 112

DILUPBiCGStab:  Solving for h, Initial residual = 0.0035549, Final residual = 2.30039e-05, No Iterations 1
GAMG:  Solving for p_rgh, Initial residual = 0.00413874, Final residual = 2.81256e-05, No Iterations 2
time step continuity errors : sum local = 0.0025639, global = 1.07927e-17, cumulative = -2.34229e-16
rho min/max : 1.13448 1.24794
DILUPBiCGStab:  Solving for omega, Initial residual = 9.18225e-05, Final residual = 3.83456e-06, No Iterations 1
DILUPBiCGStab:  Solving for k, Initial residual = 0.0177282, Final residual = 0.000621157, No Iterations 1
ExecutionTime = 39.11 s  ClockTime = 42 s

Time = 113

DILUPBiCGStab:  Solving for h, Initial residual = 0.00351952, Final residual = 2.28322e-05, No Iterations 1
GAMG:  Solving for p_rgh, Initial residual = 0.0040948, Final residual = 2.84884e-05, No Iterations 2
time step continuity errors : sum local = 0.00257684, global = -4.64054e-18, cumulative = -2.3887e-16
rho min/max : 1.13427 1.24817
DILUPBiCGStab:  Solving for omega, Initial residual = 9.13953e-05, Final residual = 3.8118e-06, No Iterations 1
DILUPBiCGStab:  Solving for k, Initial residual = 0.0179934, Final residual = 0.000641057, No Iterations 1
ExecutionTime = 39.41 s  ClockTime = 42 s

Time = 114

DILUPBiCGStab:  Solving for h, Initial residual = 0.00348184, Final residual = 2.25768e-05, No Iterations 1
GAMG:  Solving for p_rgh, Initial residual = 0.00398837, Final residual = 2.83805e-05, No Iterations 2
time step continuity errors : sum local = 0.00255669, global = 2.59065e-18, cumulative = -2.36279e-16
rho min/max : 1.13405 1.2484
DILUPBiCGStab:  Solving for omega, Initial residual = 9.1275e-05, Final residual = 3.83931e-06, No Iterations 1
DILUPBiCGStab:  Solving for k, Initial residual = 0.018267, Final residual = 0.000660026, No Iterations 1
ExecutionTime = 39.71 s  ClockTime = 42 s

Time = 115

DILUPBiCGStab:  Solving for h, Initial residual = 0.00344634, Final residual = 2.23058e-05, No Iterations 1
GAMG:  Solving for p_rgh, Initial residual = 0.00400722, Final residual = 2.82724e-05, No Iterations 2
time step continuity errors : sum local = 0.00255018, global = 1.33588e-17, cumulative = -2.2292e-16
rho min/max : 1.13384 1.24864
DILUPBiCGStab:  Solving for omega, Initial residual = 9.06867e-05, Final residual = 3.81798e-06, No Iterations 1
DILUPBiCGStab:  Solving for k, Initial residual = 0.0185634, Final residual = 0.000677881, No Iterations 1
ExecutionTime = 39.99 s  ClockTime = 43 s

Time = 116

DILUPBiCGStab:  Solving for h, Initial residual = 0.00341041, Final residual = 2.22128e-05, No Iterations 1
GAMG:  Solving for p_rgh, Initial residual = 0.0040019, Final residual = 2.78929e-05, No Iterations 2
time step continuity errors : sum local = 0.00252534, global = 7.31967e-18, cumulative = -2.15601e-16
rho min/max : 1.13362 1.24887
DILUPBiCGStab:  Solving for omega, Initial residual = 9.12035e-05, Final residual = 3.92613e-06, No Iterations 1
DILUPBiCGStab:  Solving for k, Initial residual = 0.0188608, Final residual = 0.000692195, No Iterations 1
ExecutionTime = 40.28 s  ClockTime = 43 s

Time = 117

DILUPBiCGStab:  Solving for h, Initial residual = 0.0033737, Final residual = 2.17907e-05, No Iterations 1
GAMG:  Solving for p_rgh, Initial residual = 0.00390953, Final residual = 2.7459e-05, No Iterations 2
time step continuity errors : sum local = 0.00248329, global = 8.82392e-19, cumulative = -2.14718e-16
rho min/max : 1.1334 1.24911
DILUPBiCGStab:  Solving for omega, Initial residual = 9.07117e-05, Final residual = 3.93705e-06, No Iterations 1
DILUPBiCGStab:  Solving for k, Initial residual = 0.0191797, Final residual = 0.000712951, No Iterations 1
ExecutionTime = 40.58 s  ClockTime = 43 s

Time = 118

DILUPBiCGStab:  Solving for h, Initial residual = 0.00334072, Final residual = 2.16353e-05, No Iterations 1
GAMG:  Solving for p_rgh, Initial residual = 0.00385763, Final residual = 2.68288e-05, No Iterations 2
time step continuity errors : sum local = 0.00243509, global = 8.91977e-18, cumulative = -2.05798e-16
rho min/max : 1.13319 1.24934
DILUPBiCGStab:  Solving for omega, Initial residual = 9.0342e-05, Final residual = 3.92395e-06, No Iterations 1
DILUPBiCGStab:  Solving for k, Initial residual = 0.01949, Final residual = 0.000728386, No Iterations 1
ExecutionTime = 40.89 s  ClockTime = 44 s

Time = 119

DILUPBiCGStab:  Solving for h, Initial residual = 0.00330683, Final residual = 2.13994e-05, No Iterations 1
GAMG:  Solving for p_rgh, Initial residual = 0.0038903, Final residual = 2.61587e-05, No Iterations 2
time step continuity errors : sum local = 0.00236864, global = 1.5067e-18, cumulative = -2.04292e-16
rho min/max : 1.13298 1.24957
DILUPBiCGStab:  Solving for omega, Initial residual = 9.05726e-05, Final residual = 3.90533e-06, No Iterations 1
DILUPBiCGStab:  Solving for k, Initial residual = 0.019797, Final residual = 0.000742415, No Iterations 1
ExecutionTime = 41.2 s  ClockTime = 44 s

Time = 120

DILUPBiCGStab:  Solving for h, Initial residual = 0.0032751, Final residual = 2.11391e-05, No Iterations 1
GAMG:  Solving for p_rgh, Initial residual = 0.0038559, Final residual = 2.56277e-05, No Iterations 2
time step continuity errors : sum local = 0.00232613, global = -2.50314e-17, cumulative = -2.29323e-16
rho min/max : 1.13277 1.24981
DILUPBiCGStab:  Solving for omega, Initial residual = 9.03505e-05, Final residual = 3.96771e-06, No Iterations 1
DILUPBiCGStab:  Solving for k, Initial residual = 0.0201056, Final residual = 0.000755459, No Iterations 1
ExecutionTime = 41.53 s  ClockTime = 44 s

Time = 121

DILUPBiCGStab:  Solving for h, Initial residual = 0.00324029, Final residual = 2.08477e-05, No Iterations 1
GAMG:  Solving for p_rgh, Initial residual = 0.00384711, Final residual = 2.53747e-05, No Iterations 2
time step continuity errors : sum local = 0.0022955, global = -4.30725e-17, cumulative = -2.72396e-16
rho min/max : 1.13256 1.25004
DILUPBiCGStab:  Solving for omega, Initial residual = 9.12306e-05, Final residual = 4.00045e-06, No Iterations 1
DILUPBiCGStab:  Solving for k, Initial residual = 0.02042, Final residual = 0.000771593, No Iterations 1
ExecutionTime = 41.83 s  ClockTime = 45 s

Time = 122

DILUPBiCGStab:  Solving for h, Initial residual = 0.00320605, Final residual = 2.05877e-05, No Iterations 1
GAMG:  Solving for p_rgh, Initial residual = 0.00381049, Final residual = 2.49268e-05, No Iterations 2
time step continuity errors : sum local = 0.00225404, global = -5.43445e-18, cumulative = -2.7783e-16
rho min/max : 1.13236 1.25027
DILUPBiCGStab:  Solving for omega, Initial residual = 8.9908e-05, Final residual = 3.98308e-06, No Iterations 1
DILUPBiCGStab:  Solving for k, Initial residual = 0.0207131, Final residual = 0.000785816, No Iterations 1
ExecutionTime = 42.13 s  ClockTime = 45 s

Time = 123

DILUPBiCGStab:  Solving for h, Initial residual = 0.00317514, Final residual = 2.03373e-05, No Iterations 1
GAMG:  Solving for p_rgh, Initial residual = 0.00377088, Final residual = 2.45271e-05, No Iterations 2
time step continuity errors : sum local = 0.00220486, global = 7.52369e-18, cumulative = -2.70306e-16
rho min/max : 1.13216 1.2505
DILUPBiCGStab:  Solving for omega, Initial residual = 9.00408e-05, Final residual = 3.94733e-06, No Iterations 1
DILUPBiCGStab:  Solving for k, Initial residual = 0.020956, Final residual = 0.000790396, No Iterations 1
ExecutionTime = 42.41 s  ClockTime = 45 s

Time = 124

DILUPBiCGStab:  Solving for h, Initial residual = 0.00313989, Final residual = 2.00454e-05, No Iterations 1
GAMG:  Solving for p_rgh, Initial residual = 0.0037209, Final residual = 2.42754e-05, No Iterations 2
time step continuity errors : sum local = 0.00217734, global = -1.20266e-17, cumulative = -2.82333e-16
rho min/max : 1.13197 1.25073
DILUPBiCGStab:  Solving for omega, Initial residual = 8.9622e-05, Final residual = 4.02468e-06, No Iterations 1
DILUPBiCGStab:  Solving for k, Initial residual = 0.0211606, Final residual = 0.000802672, No Iterations 1
ExecutionTime = 42.72 s  ClockTime = 46 s

Time = 125

DILUPBiCGStab:  Solving for h, Initial residual = 0.00310982, Final residual = 1.9784e-05, No Iterations 1
GAMG:  Solving for p_rgh, Initial residual = 0.00365902, Final residual = 2.4093e-05, No Iterations 2
time step continuity errors : sum local = 0.00215695, global = 3.48237e-17, cumulative = -2.47509e-16
rho min/max : 1.13178 1.25096
DILUPBiCGStab:  Solving for omega, Initial residual = 9.00496e-05, Final residual = 4.0672e-06, No Iterations 1
DILUPBiCGStab:  Solving for k, Initial residual = 0.021344, Final residual = 0.00081088, No Iterations 1
ExecutionTime = 43 s  ClockTime = 46 s

Time = 126

DILUPBiCGStab:  Solving for h, Initial residual = 0.00307916, Final residual = 1.95923e-05, No Iterations 1
GAMG:  Solving for p_rgh, Initial residual = 0.00368512, Final residual = 2.39963e-05, No Iterations 2
time step continuity errors : sum local = 0.00214083, global = 4.90355e-18, cumulative = -2.42606e-16
rho min/max : 1.1316 1.25148
DILUPBiCGStab:  Solving for omega, Initial residual = 8.94487e-05, Final residual = 3.96272e-06, No Iterations 1
[...]

Time = 969

DILUPBiCGStab:  Solving for h, Initial residual = 0.000453035, Final residual = 1.22336e-06, No Iterations 1
GAMG:  Solving for p_rgh, Initial residual = 0.000597497, Final residual = 3.62695e-06, No Iterations 2
time step continuity errors : sum local = 0.000361231, global = 8.09883e-19, cumulative = -1.84087e-16
rho min/max : 1.10533 1.28023
DILUPBiCGStab:  Solving for omega, Initial residual = 1.5915e-05, Final residual = 5.25193e-07, No Iterations 1
DILUPBiCGStab:  Solving for k, Initial residual = 0.000864701, Final residual = 1.03865e-05, No Iterations 1
ExecutionTime = 334.77 s  ClockTime = 364 s

Time = 970

DILUPBiCGStab:  Solving for h, Initial residual = 0.00045314, Final residual = 1.22951e-06, No Iterations 1
GAMG:  Solving for p_rgh, Initial residual = 0.000597528, Final residual = 3.67216e-06, No Iterations 2
time step continuity errors : sum local = 0.000365672, global = 1.09734e-17, cumulative = -1.73114e-16
rho min/max : 1.1054 1.28017
DILUPBiCGStab:  Solving for omega, Initial residual = 1.59064e-05, Final residual = 5.39583e-07, No Iterations 1
DILUPBiCGStab:  Solving for k, Initial residual = 0.000861678, Final residual = 1.03671e-05, No Iterations 1
ExecutionTime = 335.17 s  ClockTime = 365 s

Time = 971

DILUPBiCGStab:  Solving for h, Initial residual = 0.000453362, Final residual = 1.23884e-06, No Iterations 1
GAMG:  Solving for p_rgh, Initial residual = 0.000596687, Final residual = 3.71381e-06, No Iterations 2
time step continuity errors : sum local = 0.000369599, global = 8.24508e-18, cumulative = -1.64869e-16
rho min/max : 1.10547 1.28011
DILUPBiCGStab:  Solving for omega, Initial residual = 1.6019e-05, Final residual = 5.2919e-07, No Iterations 1
DILUPBiCGStab:  Solving for k, Initial residual = 0.000859482, Final residual = 1.04148e-05, No Iterations 1
ExecutionTime = 335.56 s  ClockTime = 365 s

Time = 972

DILUPBiCGStab:  Solving for h, Initial residual = 0.000453572, Final residual = 1.24501e-06, No Iterations 1
GAMG:  Solving for p_rgh, Initial residual = 0.000600196, Final residual = 3.74743e-06, No Iterations 2
time step continuity errors : sum local = 0.000373177, global = 3.67741e-17, cumulative = -1.28094e-16
rho min/max : 1.10555 1.28005
DILUPBiCGStab:  Solving for omega, Initial residual = 1.60226e-05, Final residual = 5.41813e-07, No Iterations 1
DILUPBiCGStab:  Solving for k, Initial residual = 0.000856234, Final residual = 1.03287e-05, No Iterations 1
ExecutionTime = 335.91 s  ClockTime = 366 s

Time = 973

DILUPBiCGStab:  Solving for h, Initial residual = 0.000453717, Final residual = 1.25194e-06, No Iterations 1
GAMG:  Solving for p_rgh, Initial residual = 0.00061134, Final residual = 3.77797e-06, No Iterations 2
time step continuity errors : sum local = 0.000376374, global = -2.0413e-17, cumulative = -1.48507e-16
rho min/max : 1.10561 1.27999
DILUPBiCGStab:  Solving for omega, Initial residual = 1.60441e-05, Final residual = 5.27805e-07, No Iterations 1
DILUPBiCGStab:  Solving for k, Initial residual = 0.000853356, Final residual = 1.02462e-05, No Iterations 1
ExecutionTime = 336.31 s  ClockTime = 366 s

Time = 974

DILUPBiCGStab:  Solving for h, Initial residual = 0.000453765, Final residual = 1.25393e-06, No Iterations 1
GAMG:  Solving for p_rgh, Initial residual = 0.000612574, Final residual = 3.79861e-06, No Iterations 2
time step continuity errors : sum local = 0.000378349, global = -1.06686e-17, cumulative = -1.59176e-16
rho min/max : 1.10567 1.27992
DILUPBiCGStab:  Solving for omega, Initial residual = 1.60637e-05, Final residual = 5.37148e-07, No Iterations 1
DILUPBiCGStab:  Solving for k, Initial residual = 0.000850523, Final residual = 1.02519e-05, No Iterations 1
ExecutionTime = 336.72 s  ClockTime = 367 s

Time = 975

DILUPBiCGStab:  Solving for h, Initial residual = 0.00045385, Final residual = 1.26372e-06, No Iterations 1
GAMG:  Solving for p_rgh, Initial residual = 0.000614752, Final residual = 3.82991e-06, No Iterations 2
time step continuity errors : sum local = 0.000381472, global = -5.9604e-19, cumulative = -1.59772e-16
rho min/max : 1.10572 1.27986
DILUPBiCGStab:  Solving for omega, Initial residual = 1.603e-05, Final residual = 5.29507e-07, No Iterations 1
DILUPBiCGStab:  Solving for k, Initial residual = 0.000847896, Final residual = 1.02342e-05, No Iterations 1
ExecutionTime = 337.06 s  ClockTime = 367 s

Time = 976

DILUPBiCGStab:  Solving for h, Initial residual = 0.000453801, Final residual = 1.26735e-06, No Iterations 1
GAMG:  Solving for p_rgh, Initial residual = 0.000617332, Final residual = 3.87966e-06, No Iterations 2
time step continuity errors : sum local = 0.00038695, global = 1.20094e-17, cumulative = -1.47763e-16
rho min/max : 1.10576 1.2798
DILUPBiCGStab:  Solving for omega, Initial residual = 1.61134e-05, Final residual = 5.36631e-07, No Iterations 1
DILUPBiCGStab:  Solving for k, Initial residual = 0.000844928, Final residual = 1.02469e-05, No Iterations 1
ExecutionTime = 337.42 s  ClockTime = 367 s

Time = 977

DILUPBiCGStab:  Solving for h, Initial residual = 0.000453842, Final residual = 1.27398e-06, No Iterations 1
GAMG:  Solving for p_rgh, Initial residual = 0.000618215, Final residual = 3.87353e-06, No Iterations 2
time step continuity errors : sum local = 0.000387054, global = 1.30515e-18, cumulative = -1.46458e-16
rho min/max : 1.10579 1.27974
DILUPBiCGStab:  Solving for omega, Initial residual = 1.59621e-05, Final residual = 5.2621e-07, No Iterations 1
DILUPBiCGStab:  Solving for k, Initial residual = 0.000841992, Final residual = 1.01293e-05, No Iterations 1
ExecutionTime = 337.78 s  ClockTime = 368 s

Time = 978

DILUPBiCGStab:  Solving for h, Initial residual = 0.00045387, Final residual = 1.27703e-06, No Iterations 1
GAMG:  Solving for p_rgh, Initial residual = 0.000621076, Final residual = 3.86342e-06, No Iterations 2
time step continuity errors : sum local = 0.000386611, global = 1.72054e-19, cumulative = -1.46285e-16
rho min/max : 1.10582 1.27971
DILUPBiCGStab:  Solving for omega, Initial residual = 1.61024e-05, Final residual = 5.43918e-07, No Iterations 1
DILUPBiCGStab:  Solving for k, Initial residual = 0.000839161, Final residual = 1.01498e-05, No Iterations 1
ExecutionTime = 338.12 s  ClockTime = 368 s

Time = 979

DILUPBiCGStab:  Solving for h, Initial residual = 0.000453926, Final residual = 1.29371e-06, No Iterations 1
GAMG:  Solving for p_rgh, Initial residual = 0.000626392, Final residual = 3.83631e-06, No Iterations 2
time step continuity errors : sum local = 0.000383451, global = 5.33859e-18, cumulative = -1.40947e-16
rho min/max : 1.10585 1.27977
DILUPBiCGStab:  Solving for omega, Initial residual = 1.62034e-05, Final residual = 5.32207e-07, No Iterations 1
DILUPBiCGStab:  Solving for k, Initial residual = 0.000837064, Final residual = 1.01467e-05, No Iterations 1
ExecutionTime = 338.47 s  ClockTime = 369 s

Time = 980

DILUPBiCGStab:  Solving for h, Initial residual = 0.000453993, Final residual = 1.30173e-06, No Iterations 1
GAMG:  Solving for p_rgh, Initial residual = 0.000637623, Final residual = 3.85931e-06, No Iterations 2
time step continuity errors : sum local = 0.00038607, global = 4.47341e-18, cumulative = -1.36473e-16
rho min/max : 1.10587 1.27982
DILUPBiCGStab:  Solving for omega, Initial residual = 1.60147e-05, Final residual = 5.48496e-07, No Iterations 1
DILUPBiCGStab:  Solving for k, Initial residual = 0.000833505, Final residual = 1.00331e-05, No Iterations 1
ExecutionTime = 338.83 s  ClockTime = 369 s

Time = 981

DILUPBiCGStab:  Solving for h, Initial residual = 0.000453928, Final residual = 1.30188e-06, No Iterations 1
GAMG:  Solving for p_rgh, Initial residual = 0.000638898, Final residual = 3.83705e-06, No Iterations 2
time step continuity errors : sum local = 0.000384014, global = 1.85253e-17, cumulative = -1.17948e-16
rho min/max : 1.1059 1.27987
DILUPBiCGStab:  Solving for omega, Initial residual = 1.61881e-05, Final residual = 5.39046e-07, No Iterations 1
DILUPBiCGStab:  Solving for k, Initial residual = 0.000831024, Final residual = 1.00537e-05, No Iterations 1
ExecutionTime = 339.19 s  ClockTime = 369 s

Time = 982

DILUPBiCGStab:  Solving for h, Initial residual = 0.000453922, Final residual = 1.32161e-06, No Iterations 1
GAMG:  Solving for p_rgh, Initial residual = 0.000646255, Final residual = 3.82562e-06, No Iterations 2
time step continuity errors : sum local = 0.000382367, global = 4.04032e-17, cumulative = -7.7545e-17
rho min/max : 1.10592 1.27992
DILUPBiCGStab:  Solving for omega, Initial residual = 1.61712e-05, Final residual = 5.47823e-07, No Iterations 1
DILUPBiCGStab:  Solving for k, Initial residual = 0.000827919, Final residual = 1.00295e-05, No Iterations 1
ExecutionTime = 339.57 s  ClockTime = 370 s

Time = 983

DILUPBiCGStab:  Solving for h, Initial residual = 0.000454007, Final residual = 1.31374e-06, No Iterations 1
GAMG:  Solving for p_rgh, Initial residual = 0.0006558, Final residual = 3.84017e-06, No Iterations 2
time step continuity errors : sum local = 0.000384365, global = -2.07227e-17, cumulative = -9.82677e-17
rho min/max : 1.10595 1.27997
DILUPBiCGStab:  Solving for omega, Initial residual = 1.62887e-05, Final residual = 5.3665e-07, No Iterations 1
DILUPBiCGStab:  Solving for k, Initial residual = 0.000825338, Final residual = 1.00006e-05, No Iterations 1
ExecutionTime = 339.94 s  ClockTime = 370 s

Time = 984

DILUPBiCGStab:  Solving for h, Initial residual = 0.000454159, Final residual = 1.32075e-06, No Iterations 1
GAMG:  Solving for p_rgh, Initial residual = 0.000667481, Final residual = 3.81188e-06, No Iterations 2
time step continuity errors : sum local = 0.000381921, global = -2.54394e-18, cumulative = -1.00812e-16
rho min/max : 1.10599 1.28002
DILUPBiCGStab:  Solving for omega, Initial residual = 1.63131e-05, Final residual = 5.53097e-07, No Iterations 1
DILUPBiCGStab:  Solving for k, Initial residual = 0.000822078, Final residual = 9.92892e-06, No Iterations 1
ExecutionTime = 340.32 s  ClockTime = 371 s

Time = 985

DILUPBiCGStab:  Solving for h, Initial residual = 0.000454412, Final residual = 1.33045e-06, No Iterations 1
GAMG:  Solving for p_rgh, Initial residual = 0.000659217, Final residual = 3.82226e-06, No Iterations 2
time step continuity errors : sum local = 0.000382438, global = -2.45841e-17, cumulative = -1.25396e-16
rho min/max : 1.10599 1.28007
DILUPBiCGStab:  Solving for omega, Initial residual = 1.63359e-05, Final residual = 5.37616e-07, No Iterations 1
DILUPBiCGStab:  Solving for k, Initial residual = 0.00081922, Final residual = 9.89087e-06, No Iterations 1
ExecutionTime = 340.67 s  ClockTime = 371 s

Time = 986

DILUPBiCGStab:  Solving for h, Initial residual = 0.000454661, Final residual = 1.34283e-06, No Iterations 1
GAMG:  Solving for p_rgh, Initial residual = 0.000667304, Final residual = 3.80159e-06, No Iterations 2
time step continuity errors : sum local = 0.000380743, global = 1.07792e-17, cumulative = -1.14616e-16
rho min/max : 1.10592 1.28012
DILUPBiCGStab:  Solving for omega, Initial residual = 1.64001e-05, Final residual = 5.58893e-07, No Iterations 1
DILUPBiCGStab:  Solving for k, Initial residual = 0.000816562, Final residual = 9.91527e-06, No Iterations 1
ExecutionTime = 341.04 s  ClockTime = 371 s

Time = 987

DILUPBiCGStab:  Solving for h, Initial residual = 0.000454748, Final residual = 1.3474e-06, No Iterations 1
GAMG:  Solving for p_rgh, Initial residual = 0.000669592, Final residual = 3.82943e-06, No Iterations 2
time step continuity errors : sum local = 0.00038387, global = 1.25894e-17, cumulative = -1.02027e-16
rho min/max : 1.10586 1.28016
DILUPBiCGStab:  Solving for omega, Initial residual = 1.63445e-05, Final residual = 5.4531e-07, No Iterations 1
DILUPBiCGStab:  Solving for k, Initial residual = 0.000813387, Final residual = 9.84605e-06, No Iterations 1
ExecutionTime = 341.38 s  ClockTime = 372 s

Time = 988

DILUPBiCGStab:  Solving for h, Initial residual = 0.000454806, Final residual = 1.35108e-06, No Iterations 1
GAMG:  Solving for p_rgh, Initial residual = 0.000673347, Final residual = 3.81628e-06, No Iterations 2
time step continuity errors : sum local = 0.000382164, global = 7.57529e-18, cumulative = -9.44517e-17
rho min/max : 1.1058 1.2802
DILUPBiCGStab:  Solving for omega, Initial residual = 1.65958e-05, Final residual = 5.674e-07, No Iterations 1
DILUPBiCGStab:  Solving for k, Initial residual = 0.000810275, Final residual = 9.80319e-06, No Iterations 1
ExecutionTime = 341.74 s  ClockTime = 372 s

Time = 989

DILUPBiCGStab:  Solving for h, Initial residual = 0.000454949, Final residual = 1.35974e-06, No Iterations 1
GAMG:  Solving for p_rgh, Initial residual = 0.000671743, Final residual = 3.81298e-06, No Iterations 2
time step continuity errors : sum local = 0.000382344, global = -1.23928e-17, cumulative = -1.06845e-16
rho min/max : 1.10575 1.28025
DILUPBiCGStab:  Solving for omega, Initial residual = 1.64306e-05, Final residual = 5.46631e-07, No Iterations 1
DILUPBiCGStab:  Solving for k, Initial residual = 0.000807155, Final residual = 9.71827e-06, No Iterations 1
ExecutionTime = 342.15 s  ClockTime = 373 s

Time = 990

DILUPBiCGStab:  Solving for h, Initial residual = 0.000454942, Final residual = 1.34979e-06, No Iterations 1
GAMG:  Solving for p_rgh, Initial residual = 0.000677034, Final residual = 3.82513e-06, No Iterations 2
time step continuity errors : sum local = 0.000383924, global = -1.97248e-17, cumulative = -1.26569e-16
rho min/max : 1.10569 1.28029
DILUPBiCGStab:  Solving for omega, Initial residual = 1.65535e-05, Final residual = 5.60048e-07, No Iterations 1
DILUPBiCGStab:  Solving for k, Initial residual = 0.000804375, Final residual = 9.72043e-06, No Iterations 1
ExecutionTime = 342.51 s  ClockTime = 373 s

Time = 991

DILUPBiCGStab:  Solving for h, Initial residual = 0.000455066, Final residual = 1.35226e-06, No Iterations 1
GAMG:  Solving for p_rgh, Initial residual = 0.000678624, Final residual = 3.80877e-06, No Iterations 2
time step continuity errors : sum local = 0.000381713, global = 1.99165e-17, cumulative = -1.06653e-16
rho min/max : 1.10563 1.28033
DILUPBiCGStab:  Solving for omega, Initial residual = 1.65637e-05, Final residual = 5.51798e-07, No Iterations 1
DILUPBiCGStab:  Solving for k, Initial residual = 0.000801344, Final residual = 9.68619e-06, No Iterations 1
ExecutionTime = 342.9 s  ClockTime = 374 s

Time = 992

DILUPBiCGStab:  Solving for h, Initial residual = 0.000455171, Final residual = 1.35531e-06, No Iterations 1
GAMG:  Solving for p_rgh, Initial residual = 0.000683023, Final residual = 3.8104e-06, No Iterations 2
time step continuity errors : sum local = 0.00038241, global = -1.708e-17, cumulative = -1.23733e-16
rho min/max : 1.10558 1.28037
DILUPBiCGStab:  Solving for omega, Initial residual = 1.65302e-05, Final residual = 5.66198e-07, No Iterations 1
DILUPBiCGStab:  Solving for k, Initial residual = 0.000798345, Final residual = 9.6323e-06, No Iterations 1
ExecutionTime = 343.26 s  ClockTime = 374 s

Time = 993

DILUPBiCGStab:  Solving for h, Initial residual = 0.000455327, Final residual = 1.34903e-06, No Iterations 1
GAMG:  Solving for p_rgh, Initial residual = 0.000691716, Final residual = 3.7997e-06, No Iterations 2
time step continuity errors : sum local = 0.000381691, global = 2.98735e-17, cumulative = -9.38594e-17
rho min/max : 1.10552 1.28042
DILUPBiCGStab:  Solving for omega, Initial residual = 1.66823e-05, Final residual = 5.52433e-07, No Iterations 1
DILUPBiCGStab:  Solving for k, Initial residual = 0.000795023, Final residual = 9.56036e-06, No Iterations 1
ExecutionTime = 343.61 s  ClockTime = 374 s

Time = 994

DILUPBiCGStab:  Solving for h, Initial residual = 0.00045529, Final residual = 1.35218e-06, No Iterations 1
GAMG:  Solving for p_rgh, Initial residual = 0.00070239, Final residual = 3.81459e-06, No Iterations 2
time step continuity errors : sum local = 0.000382642, global = -1.65369e-17, cumulative = -1.10396e-16
rho min/max : 1.10547 1.28046
DILUPBiCGStab:  Solving for omega, Initial residual = 1.67979e-05, Final residual = 5.73245e-07, No Iterations 1
DILUPBiCGStab:  Solving for k, Initial residual = 0.000792476, Final residual = 9.55993e-06, No Iterations 1
ExecutionTime = 343.99 s  ClockTime = 375 s

Time = 995

DILUPBiCGStab:  Solving for h, Initial residual = 0.000455276, Final residual = 1.33941e-06, No Iterations 1
GAMG:  Solving for p_rgh, Initial residual = 0.000708797, Final residual = 3.8569e-06, No Iterations 2
time step continuity errors : sum local = 0.000387285, global = 1.52464e-17, cumulative = -9.51498e-17
rho min/max : 1.10542 1.2805
DILUPBiCGStab:  Solving for omega, Initial residual = 1.6714e-05, Final residual = 5.61579e-07, No Iterations 1
DILUPBiCGStab:  Solving for k, Initial residual = 0.00078926, Final residual = 9.53548e-06, No Iterations 1
ExecutionTime = 344.35 s  ClockTime = 375 s

Time = 996

DILUPBiCGStab:  Solving for h, Initial residual = 0.000455339, Final residual = 1.34807e-06, No Iterations 1
GAMG:  Solving for p_rgh, Initial residual = 0.000717523, Final residual = 3.91381e-06, No Iterations 2
time step continuity errors : sum local = 0.000393226, global = -3.56877e-17, cumulative = -1.30837e-16
rho min/max : 1.10537 1.28054
DILUPBiCGStab:  Solving for omega, Initial residual = 1.66813e-05, Final residual = 5.75049e-07, No Iterations 1
DILUPBiCGStab:  Solving for k, Initial residual = 0.000786416, Final residual = 9.46597e-06, No Iterations 1
ExecutionTime = 344.72 s  ClockTime = 376 s

Time = 997

DILUPBiCGStab:  Solving for h, Initial residual = 0.000455396, Final residual = 1.36048e-06, No Iterations 1
GAMG:  Solving for p_rgh, Initial residual = 0.000721764, Final residual = 3.92693e-06, No Iterations 2
time step continuity errors : sum local = 0.000394623, global = 2.63747e-17, cumulative = -1.04463e-16
rho min/max : 1.10532 1.28058
DILUPBiCGStab:  Solving for omega, Initial residual = 1.67005e-05, Final residual = 5.6351e-07, No Iterations 1
DILUPBiCGStab:  Solving for k, Initial residual = 0.000783544, Final residual = 9.47454e-06, No Iterations 1
ExecutionTime = 345.1 s  ClockTime = 376 s

Time = 998

DILUPBiCGStab:  Solving for h, Initial residual = 0.000455481, Final residual = 1.36772e-06, No Iterations 1
GAMG:  Solving for p_rgh, Initial residual = 0.000728654, Final residual = 3.92986e-06, No Iterations 2
time step continuity errors : sum local = 0.000395231, global = 5.1948e-18, cumulative = -9.9268e-17
rho min/max : 1.10527 1.28061
DILUPBiCGStab:  Solving for omega, Initial residual = 1.67383e-05, Final residual = 5.76988e-07, No Iterations 1
DILUPBiCGStab:  Solving for k, Initial residual = 0.000780652, Final residual = 9.42568e-06, No Iterations 1
ExecutionTime = 345.49 s  ClockTime = 376 s

Time = 999

DILUPBiCGStab:  Solving for h, Initial residual = 0.000455612, Final residual = 1.37088e-06, No Iterations 1
GAMG:  Solving for p_rgh, Initial residual = 0.000733095, Final residual = 3.89123e-06, No Iterations 2
time step continuity errors : sum local = 0.000391015, global = 1.33932e-17, cumulative = -8.58748e-17
rho min/max : 1.10523 1.28065
DILUPBiCGStab:  Solving for omega, Initial residual = 1.70468e-05, Final residual = 5.71286e-07, No Iterations 1
DILUPBiCGStab:  Solving for k, Initial residual = 0.000778141, Final residual = 9.45563e-06, No Iterations 1
ExecutionTime = 345.83 s  ClockTime = 377 s

Time = 1000

DILUPBiCGStab:  Solving for h, Initial residual = 0.000455701, Final residual = 1.37082e-06, No Iterations 1
GAMG:  Solving for p_rgh, Initial residual = 0.000733767, Final residual = 3.8833e-06, No Iterations 2
time step continuity errors : sum local = 0.000390601, global = 3.15843e-18, cumulative = -8.27164e-17
rho min/max : 1.10518 1.28069
DILUPBiCGStab:  Solving for omega, Initial residual = 1.69754e-05, Final residual = 5.81654e-07, No Iterations 1
DILUPBiCGStab:  Solving for k, Initial residual = 0.000775197, Final residual = 9.38461e-06, No Iterations 1
ExecutionTime = 347.07 s  ClockTime = 379 s

End

