/*---------------------------------------------------------------------------*\
| =========                 |                                                 |
| \\      /  F ield         | OpenFOAM: The Open Source CFD Toolbox           |
|  \\    /   O peration     | Version:  v2012                                 |
|   \\  /    A nd           | Website:  www.openfoam.com                      |
|    \\/     M anipulation  |                                                 |
\*---------------------------------------------------------------------------*/
Build  : _7bdb509494-20201222 OPENFOAM=2012
Arch   : "LSB;label=32;scalar=64"
Exec   : buoyantPimpleFoam
Date   : Aug 13 2021
Time   : 16:26:45
Host   : DESKTOP-DOBVM7I
PID    : 2034
I/O    : uncollated
Case   : /mnt/c/Users/TSam/GitHub_OpenFOAM/OpenFoam_heatTrf/buoyantPimpleFoam_timevaryingBC/fine_timevaryingCavityFoam
nProcs : 1
trapFpe: Floating point exception trapping enabled (FOAM_SIGFPE).
fileModificationChecking : Monitoring run-time modified files using timeStampMaster (fileModificationSkew 5, maxFileModificationPolls 20)
allowSystemOperations : Allowing user-supplied system call operations

// * * * * * * * * * * * * * * * * * * * * * * * * * * * * * * * * * * * * * //
Create time

Create mesh for time = 0


PIMPLE: Operating solver in PISO mode

Reading thermophysical properties

Selecting thermodynamics package 
{
    type            heRhoThermo;
    mixture         pureMixture;
    transport       const;
    thermo          hConst;
    equationOfState perfectGas;
    specie          specie;
    energy          sensibleEnthalpy;
}

Reading field U

Reading/calculating face flux field phi

Creating turbulence model

Selecting turbulence model type RAS
Selecting RAS turbulence model kOmegaSST
Selecting patchDistMethod meshWave
RAS
{
    RASModel        kOmegaSST;
    turbulence      on;
    printCoeffs     on;
    alphaK1         0.85;
    alphaK2         1;
    alphaOmega1     0.5;
    alphaOmega2     0.856;
    gamma1          0.555556;
    gamma2          0.44;
    beta1           0.075;
    beta2           0.0828;
    betaStar        0.09;
    a1              0.31;
    b1              1;
    c1              10;
    F3              false;
    decayControl    false;
    kInf            0;
    omegaInf        0;
}


Reading g

Reading hRef
Calculating field g.h

Reading field p_rgh

Creating field dpdt

Creating field kinetic energy K

No MRF models present

Radiation model not active: radiationProperties not found
Selecting radiationModel none
No finite volume options present
Courant Number mean: 0 max: 0

Starting time loop

Courant Number mean: 0 max: 0
deltaT = 0.0120482
Time = 0.0120482

diagonal:  Solving for rho, Initial residual = 0, Final residual = 0, No Iterations 0
PIMPLE: iteration 1
DICPCG:  Solving for p_rgh, Initial residual = 0.0866021, Final residual = 0.000791605, No Iterations 168
diagonal:  Solving for rho, Initial residual = 0, Final residual = 0, No Iterations 0
time step continuity errors : sum local = 2.19424e-05, global = 5.40091e-13, cumulative = 5.40091e-13
DICPCG:  Solving for p_rgh, Initial residual = 0.0818665, Final residual = 9.64991e-08, No Iterations 263
diagonal:  Solving for rho, Initial residual = 0, Final residual = 0, No Iterations 0
time step continuity errors : sum local = 3.78657e-05, global = 5.39205e-13, cumulative = 1.0793e-12
ExecutionTime = 2.68 s  ClockTime = 5 s

Courant Number mean: 0.00418252 max: 1.24345
deltaT = 0.0048429
Time = 0.0168911

diagonal:  Solving for rho, Initial residual = 0, Final residual = 0, No Iterations 0
PIMPLE: iteration 1
DICPCG:  Solving for p_rgh, Initial residual = 0.119849, Final residual = 0.00114279, No Iterations 176
diagonal:  Solving for rho, Initial residual = 0, Final residual = 0, No Iterations 0
time step continuity errors : sum local = 4.30068e-05, global = 1.10687e-16, cumulative = 1.07941e-12
DICPCG:  Solving for p_rgh, Initial residual = 0.114355, Final residual = 9.35007e-08, No Iterations 280
diagonal:  Solving for rho, Initial residual = 0, Final residual = 0, No Iterations 0
time step continuity errors : sum local = 3.74008e-05, global = -6.60475e-15, cumulative = 1.0728e-12
ExecutionTime = 4.12 s  ClockTime = 6 s

Courant Number mean: 0.00252792 max: 1.29479
deltaT = 0.00186903
Time = 0.0187601

diagonal:  Solving for rho, Initial residual = 0, Final residual = 0, No Iterations 0
PIMPLE: iteration 1
DICPCG:  Solving for p_rgh, Initial residual = 0.41506, Final residual = 0.00413163, No Iterations 122
diagonal:  Solving for rho, Initial residual = 0, Final residual = 0, No Iterations 0
time step continuity errors : sum local = 1.50252e-05, global = 1.47197e-14, cumulative = 1.08752e-12
DICPCG:  Solving for p_rgh, Initial residual = 0.698377, Final residual = 9.98852e-08, No Iterations 252
diagonal:  Solving for rho, Initial residual = 0, Final residual = 0, No Iterations 0
time step continuity errors : sum local = 1.29926e-05, global = 7.57354e-15, cumulative = 1.0951e-12
ExecutionTime = 5.31 s  ClockTime = 7 s

Courant Number mean: 0.000926882 max: 0.4563
deltaT = 0.00204852
Time = 0.0208086

diagonal:  Solving for rho, Initial residual = 0, Final residual = 0, No Iterations 0
PIMPLE: iteration 1
DICPCG:  Solving for p_rgh, Initial residual = 0.612494, Final residual = 0.0060608, No Iterations 138
diagonal:  Solving for rho, Initial residual = 0, Final residual = 0, No Iterations 0
time step continuity errors : sum local = 1.21129e-05, global = 1.1289e-15, cumulative = 1.09622e-12
DICPCG:  Solving for p_rgh, Initial residual = 0.234915, Final residual = 9.69774e-08, No Iterations 246
diagonal:  Solving for rho, Initial residual = 0, Final residual = 0, No Iterations 0
time step continuity errors : sum local = 1.00121e-05, global = -2.45924e-15, cumulative = 1.09376e-12
ExecutionTime = 6.44 s  ClockTime = 8 s

Courant Number mean: 0.000772491 max: 0.355605
deltaT = 0.00233697
Time = 0.0231456

diagonal:  Solving for rho, Initial residual = 0, Final residual = 0, No Iterations 0
PIMPLE: iteration 1
DICPCG:  Solving for p_rgh, Initial residual = 0.145943, Final residual = 0.00143143, No Iterations 138
diagonal:  Solving for rho, Initial residual = 0, Final residual = 0, No Iterations 0
time step continuity errors : sum local = 6.91637e-06, global = 7.31792e-15, cumulative = 1.10108e-12
DICPCG:  Solving for p_rgh, Initial residual = 0.0677186, Final residual = 9.24784e-08, No Iterations 237
diagonal:  Solving for rho, Initial residual = 0, Final residual = 0, No Iterations 0
time step continuity errors : sum local = 5.13244e-06, global = 6.58612e-15, cumulative = 1.10767e-12
ExecutionTime = 7.65 s  ClockTime = 10 s

Courant Number mean: 0.000455742 max: 0.186766
deltaT = 0.00280705
Time = 0.0259527

diagonal:  Solving for rho, Initial residual = 0, Final residual = 0, No Iterations 0
PIMPLE: iteration 1
DICPCG:  Solving for p_rgh, Initial residual = 0.0501024, Final residual = 0.00047817, No Iterations 145
diagonal:  Solving for rho, Initial residual = 0, Final residual = 0, No Iterations 0
time step continuity errors : sum local = 5.94647e-07, global = 7.61827e-15, cumulative = 1.11529e-12
DICPCG:  Solving for p_rgh, Initial residual = 0.0362123, Final residual = 9.54087e-08, No Iterations 249
diagonal:  Solving for rho, Initial residual = 0, Final residual = 0, No Iterations 0
time step continuity errors : sum local = 1.80504e-06, global = -7.28257e-15, cumulative = 1.108e-12
ExecutionTime = 8.77 s  ClockTime = 11 s

Courant Number mean: 0.000315361 max: 0.0549115
deltaT = 0.00337041
Time = 0.0293231

diagonal:  Solving for rho, Initial residual = 0, Final residual = 0, No Iterations 0
PIMPLE: iteration 1
DICPCG:  Solving for p_rgh, Initial residual = 0.0781755, Final residual = 0.000778307, No Iterations 151
diagonal:  Solving for rho, Initial residual = 0, Final residual = 0, No Iterations 0
time step continuity errors : sum local = 1.02652e-05, global = -2.92209e-15, cumulative = 1.10508e-12
DICPCG:  Solving for p_rgh, Initial residual = 0.0592267, Final residual = 8.83695e-08, No Iterations 261
diagonal:  Solving for rho, Initial residual = 0, Final residual = 0, No Iterations 0
time step continuity errors : sum local = 1.01316e-05, global = 5.58628e-15, cumulative = 1.11067e-12
ExecutionTime = 9.96 s  ClockTime = 12 s

Courant Number mean: 0.000739159 max: 0.343427
deltaT = 0.00386724
Time = 0.0331903

diagonal:  Solving for rho, Initial residual = 0, Final residual = 0, No Iterations 0
PIMPLE: iteration 1
DICPCG:  Solving for p_rgh, Initial residual = 0.10725, Final residual = 0.000971203, No Iterations 160
diagonal:  Solving for rho, Initial residual = 0, Final residual = 0, No Iterations 0
time step continuity errors : sum local = 1.98244e-05, global = 2.60475e-15, cumulative = 1.11327e-12
DICPCG:  Solving for p_rgh, Initial residual = 0.0813535, Final residual = 9.76551e-08, No Iterations 269
diagonal:  Solving for rho, Initial residual = 0, Final residual = 0, No Iterations 0
time step continuity errors : sum local = 1.73852e-05, global = 1.23077e-14, cumulative = 1.12558e-12
ExecutionTime = 11.17 s  ClockTime = 13 s

Courant Number mean: 0.00116098 max: 0.552704
deltaT = 0.00350293
Time = 0.0366932

diagonal:  Solving for rho, Initial residual = 0, Final residual = 0, No Iterations 0
PIMPLE: iteration 1
DICPCG:  Solving for p_rgh, Initial residual = 0.232368, Final residual = 0.00203712, No Iterations 152
diagonal:  Solving for rho, Initial residual = 0, Final residual = 0, No Iterations 0
time step continuity errors : sum local = 1.76835e-05, global = -1.37117e-14, cumulative = 1.11187e-12
DICPCG:  Solving for p_rgh, Initial residual = 0.612261, Final residual = 9.13375e-08, No Iterations 269
diagonal:  Solving for rho, Initial residual = 0, Final residual = 0, No Iterations 0
time step continuity errors : sum local = 1.50182e-05, global = -1.65777e-14, cumulative = 1.09529e-12
ExecutionTime = 12.34 s  ClockTime = 14 s

Courant Number mean: 0.000962827 max: 0.423405
deltaT = 0.00391588
Time = 0.0406091

diagonal:  Solving for rho, Initial residual = 0, Final residual = 0, No Iterations 0
PIMPLE: iteration 1
DICPCG:  Solving for p_rgh, Initial residual = 0.164441, Final residual = 0.00157581, No Iterations 154
diagonal:  Solving for rho, Initial residual = 0, Final residual = 0, No Iterations 0
time step continuity errors : sum local = 1.43775e-05, global = 1.93898e-14, cumulative = 1.11468e-12
DICPCG:  Solving for p_rgh, Initial residual = 0.0767368, Final residual = 9.01375e-08, No Iterations 262
diagonal:  Solving for rho, Initial residual = 0, Final residual = 0, No Iterations 0
time step continuity errors : sum local = 1.15953e-05, global = 2.8416e-15, cumulative = 1.11752e-12
ExecutionTime = 13.49 s  ClockTime = 16 s

Courant Number mean: 0.000749582 max: 0.257093
deltaT = 0.00467996
Time = 0.0452891

diagonal:  Solving for rho, Initial residual = 0, Final residual = 0, No Iterations 0
PIMPLE: iteration 1
DICPCG:  Solving for p_rgh, Initial residual = 0.0626637, Final residual = 0.000617005, No Iterations 146
diagonal:  Solving for rho, Initial residual = 0, Final residual = 0, No Iterations 0
time step continuity errors : sum local = 6.31725e-06, global = -3.91778e-15, cumulative = 1.11361e-12
DICPCG:  Solving for p_rgh, Initial residual = 0.0261524, Final residual = 9.17231e-08, No Iterations 263
diagonal:  Solving for rho, Initial residual = 0, Final residual = 0, No Iterations 0
time step continuity errors : sum local = 3.96321e-06, global = 8.20428e-15, cumulative = 1.12181e-12
ExecutionTime = 14.67 s  ClockTime = 17 s

Courant Number mean: 0.000710516 max: 0.603023
deltaT = 0.00388094
Time = 0.04917

diagonal:  Solving for rho, Initial residual = 0, Final residual = 0, No Iterations 0
PIMPLE: iteration 1
DICPCG:  Solving for p_rgh, Initial residual = 0.104699, Final residual = 0.000955532, No Iterations 167
diagonal:  Solving for rho, Initial residual = 0, Final residual = 0, No Iterations 0
time step continuity errors : sum local = 3.58485e-06, global = 3.6948e-16, cumulative = 1.12218e-12
DICPCG:  Solving for p_rgh, Initial residual = 0.0595106, Final residual = 9.61263e-08, No Iterations 270
diagonal:  Solving for rho, Initial residual = 0, Final residual = 0, No Iterations 0
time step continuity errors : sum local = 4.00739e-06, global = -7.9201e-15, cumulative = 1.11426e-12
ExecutionTime = 15.9 s  ClockTime = 18 s

Courant Number mean: 0.000621015 max: 0.746227
deltaT = 0.0025979
Time = 0.0517679

diagonal:  Solving for rho, Initial residual = 0, Final residual = 0, No Iterations 0
PIMPLE: iteration 1
DICPCG:  Solving for p_rgh, Initial residual = 0.183122, Final residual = 0.00168879, No Iterations 141
diagonal:  Solving for rho, Initial residual = 0, Final residual = 0, No Iterations 0
time step continuity errors : sum local = 5.42158e-06, global = -2.13712e-15, cumulative = 1.11212e-12
DICPCG:  Solving for p_rgh, Initial residual = 0.139587, Final residual = 9.65989e-08, No Iterations 254
diagonal:  Solving for rho, Initial residual = 0, Final residual = 0, No Iterations 0
time step continuity errors : sum local = 5.06772e-06, global = 8.05793e-15, cumulative = 1.12018e-12
ExecutionTime = 17.12 s  ClockTime = 19 s

Courant Number mean: 0.000472235 max: 0.534385
deltaT = 0.00243136
Time = 0.0541993

diagonal:  Solving for rho, Initial residual = 0, Final residual = 0, No Iterations 0
PIMPLE: iteration 1
DICPCG:  Solving for p_rgh, Initial residual = 0.207602, Final residual = 0.00200536, No Iterations 132
diagonal:  Solving for rho, Initial residual = 0, Final residual = 0, No Iterations 0
time step continuity errors : sum local = 5.91394e-06, global = 3.86043e-15, cumulative = 1.12404e-12
DICPCG:  Solving for p_rgh, Initial residual = 0.261188, Final residual = 9.48195e-08, No Iterations 257
diagonal:  Solving for rho, Initial residual = 0, Final residual = 0, No Iterations 0
time step continuity errors : sum local = 5.26175e-06, global = -2.30492e-16, cumulative = 1.12381e-12
ExecutionTime = 18.23 s  ClockTime = 20 s

Courant Number mean: 0.000463443 max: 0.464276
deltaT = 0.00261995
Time = 0.0568192

diagonal:  Solving for rho, Initial residual = 0, Final residual = 0, No Iterations 0
PIMPLE: iteration 1
DICPCG:  Solving for p_rgh, Initial residual = 0.430632, Final residual = 0.00412306, No Iterations 127
diagonal:  Solving for rho, Initial residual = 0, Final residual = 0, No Iterations 0
time step continuity errors : sum local = 5.48838e-06, global = -6.95166e-15, cumulative = 1.11686e-12
DICPCG:  Solving for p_rgh, Initial residual = 0.235421, Final residual = 9.57003e-08, No Iterations 260
diagonal:  Solving for rho, Initial residual = 0, Final residual = 0, No Iterations 0
time step continuity errors : sum local = 4.62697e-06, global = -2.20509e-16, cumulative = 1.11664e-12
ExecutionTime = 19.32 s  ClockTime = 22 s

Courant Number mean: 0.000468382 max: 0.417756
deltaT = 0.00292913
Time = 0.0597484

diagonal:  Solving for rho, Initial residual = 0, Final residual = 0, No Iterations 0
PIMPLE: iteration 1
DICPCG:  Solving for p_rgh, Initial residual = 0.158063, Final residual = 0.00156066, No Iterations 156
diagonal:  Solving for rho, Initial residual = 0, Final residual = 0, No Iterations 0
time step continuity errors : sum local = 3.6202e-06, global = -8.02443e-15, cumulative = 1.10861e-12
DICPCG:  Solving for p_rgh, Initial residual = 0.0850549, Final residual = 9.95269e-08, No Iterations 242
diagonal:  Solving for rho, Initial residual = 0, Final residual = 0, No Iterations 0
time step continuity errors : sum local = 2.77812e-06, global = -7.42065e-15, cumulative = 1.10119e-12
ExecutionTime = 20.51 s  ClockTime = 23 s

Courant Number mean: 0.000455965 max: 0.349035
deltaT = 0.00334609
Time = 0.0630944

diagonal:  Solving for rho, Initial residual = 0, Final residual = 0, No Iterations 0
PIMPLE: iteration 1
DICPCG:  Solving for p_rgh, Initial residual = 0.0769549, Final residual = 0.000717388, No Iterations 143
diagonal:  Solving for rho, Initial residual = 0, Final residual = 0, No Iterations 0
time step continuity errors : sum local = 7.36239e-07, global = 2.57126e-15, cumulative = 1.10376e-12
DICPCG:  Solving for p_rgh, Initial residual = 0.041165, Final residual = 9.60006e-08, No Iterations 259
diagonal:  Solving for rho, Initial residual = 0, Final residual = 0, No Iterations 0
time step continuity errors : sum local = 1.19889e-07, global = 4.77421e-15, cumulative = 1.10854e-12
ExecutionTime = 21.76 s  ClockTime = 24 s

Courant Number mean: 0.000479126 max: 0.260716
deltaT = 0.00398683
Time = 0.0670813

diagonal:  Solving for rho, Initial residual = 0, Final residual = 0, No Iterations 0
PIMPLE: iteration 1
DICPCG:  Solving for p_rgh, Initial residual = 0.0753847, Final residual = 0.000741381, No Iterations 155
diagonal:  Solving for rho, Initial residual = 0, Final residual = 0, No Iterations 0
time step continuity errors : sum local = 2.65083e-06, global = -3.92819e-15, cumulative = 1.10461e-12
DICPCG:  Solving for p_rgh, Initial residual = 0.0607471, Final residual = 9.49377e-08, No Iterations 262
diagonal:  Solving for rho, Initial residual = 0, Final residual = 0, No Iterations 0
time step continuity errors : sum local = 2.72777e-06, global = 1.95719e-15, cumulative = 1.10657e-12
ExecutionTime = 23.01 s  ClockTime = 25 s

Courant Number mean: 0.000566873 max: 0.259866
deltaT = 0.00475979
Time = 0.0718411

diagonal:  Solving for rho, Initial residual = 0, Final residual = 0, No Iterations 0
PIMPLE: iteration 1
DICPCG:  Solving for p_rgh, Initial residual = 0.0946306, Final residual = 0.000926281, No Iterations 154
diagonal:  Solving for rho, Initial residual = 0, Final residual = 0, No Iterations 0
time step continuity errors : sum local = 5.21229e-06, global = 6.5495e-15, cumulative = 1.11312e-12
DICPCG:  Solving for p_rgh, Initial residual = 0.0781135, Final residual = 9.6099e-08, No Iterations 281
diagonal:  Solving for rho, Initial residual = 0, Final residual = 0, No Iterations 0
time step continuity errors : sum local = 4.44517e-06, global = -1.95975e-14, cumulative = 1.09352e-12
ExecutionTime = 24.28 s  ClockTime = 27 s

Courant Number mean: 0.000674225 max: 0.28965
deltaT = 0.00559132
Time = 0.0774324

diagonal:  Solving for rho, Initial residual = 0, Final residual = 0, No Iterations 0
PIMPLE: iteration 1
DICPCG:  Solving for p_rgh, Initial residual = 0.14062, Final residual = 0.00136968, No Iterations 164
diagonal:  Solving for rho, Initial residual = 0, Final residual = 0, No Iterations 0
time step continuity errors : sum local = 5.28303e-06, global = 2.24934e-14, cumulative = 1.11601e-12
DICPCG:  Solving for p_rgh, Initial residual = 0.152592, Final residual = 9.60685e-08, No Iterations 283
diagonal:  Solving for rho, Initial residual = 0, Final residual = 0, No Iterations 0
time step continuity errors : sum local = 3.83184e-06, global = 1.56959e-14, cumulative = 1.13171e-12
ExecutionTime = 25.54 s  ClockTime = 28 s

Courant Number mean: 0.000764209 max: 0.308508
deltaT = 0.00649696
Time = 0.0839293

diagonal:  Solving for rho, Initial residual = 0, Final residual = 0, No Iterations 0
PIMPLE: iteration 1
DICPCG:  Solving for p_rgh, Initial residual = 0.171649, Final residual = 0.00160104, No Iterations 155
diagonal:  Solving for rho, Initial residual = 0, Final residual = 0, No Iterations 0
time step continuity errors : sum local = 2.35138e-06, global = 6.6644e-15, cumulative = 1.13837e-12
DICPCG:  Solving for p_rgh, Initial residual = 0.0454861, Final residual = 9.18801e-08, No Iterations 281
diagonal:  Solving for rho, Initial residual = 0, Final residual = 0, No Iterations 0
time step continuity errors : sum local = 1.09303e-06, global = -9.11018e-15, cumulative = 1.12926e-12
ExecutionTime = 26.82 s  ClockTime = 29 s

Courant Number mean: 0.000857401 max: 0.318363
deltaT = 0.00750878
Time = 0.0914381

diagonal:  Solving for rho, Initial residual = 0, Final residual = 0, No Iterations 0
PIMPLE: iteration 1
DICPCG:  Solving for p_rgh, Initial residual = 0.0896113, Final residual = 0.000851433, No Iterations 111
diagonal:  Solving for rho, Initial residual = 0, Final residual = 0, No Iterations 0
time step continuity errors : sum local = 1.43537e-06, global = 2.15706e-14, cumulative = 1.15083e-12
DICPCG:  Solving for p_rgh, Initial residual = 0.048829, Final residual = 8.75686e-08, No Iterations 291
diagonal:  Solving for rho, Initial residual = 0, Final residual = 0, No Iterations 0
time step continuity errors : sum local = 1.4881e-06, global = 1.97888e-14, cumulative = 1.17062e-12
ExecutionTime = 28.05 s  ClockTime = 30 s

Courant Number mean: 0.000973682 max: 0.313058
deltaT = 0.00873617
Time = 0.100174

diagonal:  Solving for rho, Initial residual = 0, Final residual = 0, No Iterations 0
PIMPLE: iteration 1
DICPCG:  Solving for p_rgh, Initial residual = 0.10805, Final residual = 0.00103142, No Iterations 175
diagonal:  Solving for rho, Initial residual = 0, Final residual = 0, No Iterations 0
time step continuity errors : sum local = 2.72208e-06, global = -3.38681e-15, cumulative = 1.16724e-12
DICPCG:  Solving for p_rgh, Initial residual = 0.0912321, Final residual = 8.95166e-08, No Iterations 301
diagonal:  Solving for rho, Initial residual = 0, Final residual = 0, No Iterations 0
time step continuity errors : sum local = 1.76154e-06, global = 6.05111e-15, cumulative = 1.17329e-12
ExecutionTime = 29.49 s  ClockTime = 32 s

Courant Number mean: 0.00111652 max: 0.328653
deltaT = 0.0101104
Time = 0.110285

diagonal:  Solving for rho, Initial residual = 0, Final residual = 0, No Iterations 0
PIMPLE: iteration 1
DICPCG:  Solving for p_rgh, Initial residual = 0.102677, Final residual = 0.00102217, No Iterations 162
diagonal:  Solving for rho, Initial residual = 0, Final residual = 0, No Iterations 0
time step continuity errors : sum local = 1.13971e-06, global = -2.06702e-14, cumulative = 1.15262e-12
DICPCG:  Solving for p_rgh, Initial residual = 0.031848, Final residual = 8.79635e-08, No Iterations 290
diagonal:  Solving for rho, Initial residual = 0, Final residual = 0, No Iterations 0
time step continuity errors : sum local = 3.61782e-07, global = -7.59747e-15, cumulative = 1.14502e-12
ExecutionTime = 30.8 s  ClockTime = 33 s

Courant Number mean: 0.00127272 max: 0.340083
deltaT = 0.0115547
Time = 0.121839

diagonal:  Solving for rho, Initial residual = 0, Final residual = 0, No Iterations 0
PIMPLE: iteration 1
DICPCG:  Solving for p_rgh, Initial residual = 0.0671337, Final residual = 0.000640401, No Iterations 173
diagonal:  Solving for rho, Initial residual = 0, Final residual = 0, No Iterations 0
time step continuity errors : sum local = 6.20876e-07, global = -1.42324e-14, cumulative = 1.13079e-12
DICPCG:  Solving for p_rgh, Initial residual = 0.0346412, Final residual = 9.37185e-08, No Iterations 292
diagonal:  Solving for rho, Initial residual = 0, Final residual = 0, No Iterations 0
time step continuity errors : sum local = 5.73175e-07, global = -1.29342e-14, cumulative = 1.11785e-12
ExecutionTime = 32.14 s  ClockTime = 35 s

Courant Number mean: 0.00143094 max: 0.339997
deltaT = 0.0133055
Time = 0.135145

diagonal:  Solving for rho, Initial residual = 0, Final residual = 0, No Iterations 0
PIMPLE: iteration 1
DICPCG:  Solving for p_rgh, Initial residual = 0.0682763, Final residual = 0.000658232, No Iterations 183
diagonal:  Solving for rho, Initial residual = 0, Final residual = 0, No Iterations 0
time step continuity errors : sum local = 8.03703e-07, global = -9.75495e-15, cumulative = 1.1081e-12
DICPCG:  Solving for p_rgh, Initial residual = 0.0423523, Final residual = 9.01103e-08, No Iterations 299
diagonal:  Solving for rho, Initial residual = 0, Final residual = 0, No Iterations 0
time step continuity errors : sum local = 4.12689e-07, global = -7.36639e-15, cumulative = 1.10073e-12
ExecutionTime = 33.57 s  ClockTime = 36 s

Courant Number mean: 0.00161201 max: 0.344178
deltaT = 0.0151729
Time = 0.150318

diagonal:  Solving for rho, Initial residual = 0, Final residual = 0, No Iterations 0
PIMPLE: iteration 1
DICPCG:  Solving for p_rgh, Initial residual = 0.0843231, Final residual = 0.00082925, No Iterations 182
diagonal:  Solving for rho, Initial residual = 0, Final residual = 0, No Iterations 0
time step continuity errors : sum local = 1.64689e-07, global = 1.22501e-14, cumulative = 1.11298e-12
DICPCG:  Solving for p_rgh, Initial residual = 0.0464659, Final residual = 9.5381e-08, No Iterations 310
diagonal:  Solving for rho, Initial residual = 0, Final residual = 0, No Iterations 0
time step continuity errors : sum local = 1.29062e-08, global = 2.39277e-14, cumulative = 1.13691e-12
ExecutionTime = 34.99 s  ClockTime = 37 s

Courant Number mean: 0.00179324 max: 0.382174
deltaT = 0.0169936
Time = 0.167311

diagonal:  Solving for rho, Initial residual = 0, Final residual = 0, No Iterations 0
PIMPLE: iteration 1
DICPCG:  Solving for p_rgh, Initial residual = 0.0938321, Final residual = 0.000900376, No Iterations 164
diagonal:  Solving for rho, Initial residual = 0, Final residual = 0, No Iterations 0
time step continuity errors : sum local = 1.58239e-07, global = -4.05655e-15, cumulative = 1.13285e-12
DICPCG:  Solving for p_rgh, Initial residual = 0.037885, Final residual = 9.30148e-08, No Iterations 311
diagonal:  Solving for rho, Initial residual = 0, Final residual = 0, No Iterations 0
time step continuity errors : sum local = 4.90403e-08, global = -4.78935e-15, cumulative = 1.12806e-12
ExecutionTime = 36.38 s  ClockTime = 39 s

Courant Number mean: 0.00195821 max: 0.396418
deltaT = 0.0189247
Time = 0.186236

diagonal:  Solving for rho, Initial residual = 0, Final residual = 0, No Iterations 0
PIMPLE: iteration 1
DICPCG:  Solving for p_rgh, Initial residual = 0.072748, Final residual = 0.000706515, No Iterations 176
diagonal:  Solving for rho, Initial residual = 0, Final residual = 0, No Iterations 0
time step continuity errors : sum local = 6.97157e-08, global = -2.33003e-14, cumulative = 1.10476e-12
DICPCG:  Solving for p_rgh, Initial residual = 0.0320835, Final residual = 9.69132e-08, No Iterations 306
diagonal:  Solving for rho, Initial residual = 0, Final residual = 0, No Iterations 0
time step continuity errors : sum local = 2.54648e-08, global = -8.62858e-15, cumulative = 1.09613e-12
ExecutionTime = 37.72 s  ClockTime = 40 s

Courant Number mean: 0.00213013 max: 0.395853
deltaT = 0.0214148
Time = 0.207651

diagonal:  Solving for rho, Initial residual = 0, Final residual = 0, No Iterations 0
PIMPLE: iteration 1
DICPCG:  Solving for p_rgh, Initial residual = 0.0645865, Final residual = 0.000607233, No Iterations 160
diagonal:  Solving for rho, Initial residual = 0, Final residual = 0, No Iterations 0
time step continuity errors : sum local = 8.11896e-08, global = 3.12143e-15, cumulative = 1.09925e-12
DICPCG:  Solving for p_rgh, Initial residual = 0.0333462, Final residual = 9.77208e-08, No Iterations 308
diagonal:  Solving for rho, Initial residual = 0, Final residual = 0, No Iterations 0
time step continuity errors : sum local = 3.49941e-08, global = 3.03532e-15, cumulative = 1.10229e-12
ExecutionTime = 39.07 s  ClockTime = 42 s

Courant Number mean: 0.0023554 max: 0.416197
deltaT = 0.0240106
Time = 0.231662

diagonal:  Solving for rho, Initial residual = 0, Final residual = 0, No Iterations 0
PIMPLE: iteration 1
DICPCG:  Solving for p_rgh, Initial residual = 0.0614352, Final residual = 0.000592036, No Iterations 143
diagonal:  Solving for rho, Initial residual = 0, Final residual = 0, No Iterations 0
time step continuity errors : sum local = 6.7782e-08, global = 2.64747e-15, cumulative = 1.10494e-12
DICPCG:  Solving for p_rgh, Initial residual = 0.0332913, Final residual = 8.84882e-08, No Iterations 312
diagonal:  Solving for rho, Initial residual = 0, Final residual = 0, No Iterations 0
time step continuity errors : sum local = 2.11855e-08, global = -8.01499e-15, cumulative = 1.09692e-12
ExecutionTime = 40.37 s  ClockTime = 43 s

Courant Number mean: 0.00257801 max: 0.427918
deltaT = 0.0264944
Time = 0.258156

diagonal:  Solving for rho, Initial residual = 0, Final residual = 0, No Iterations 0
PIMPLE: iteration 1
DICPCG:  Solving for p_rgh, Initial residual = 0.0547883, Final residual = 0.000527809, No Iterations 160
diagonal:  Solving for rho, Initial residual = 0, Final residual = 0, No Iterations 0
time step continuity errors : sum local = 5.55073e-08, global = -5.19524e-15, cumulative = 1.09173e-12
DICPCG:  Solving for p_rgh, Initial residual = 0.0318826, Final residual = 9.37401e-08, No Iterations 312
diagonal:  Solving for rho, Initial residual = 0, Final residual = 0, No Iterations 0
time step continuity errors : sum local = 1.48219e-08, global = 1.13141e-14, cumulative = 1.10304e-12
ExecutionTime = 41.68 s  ClockTime = 44 s

Courant Number mean: 0.00278093 max: 0.428948
deltaT = 0.0296738
Time = 0.28783

diagonal:  Solving for rho, Initial residual = 0, Final residual = 0, No Iterations 0
PIMPLE: iteration 1
DICPCG:  Solving for p_rgh, Initial residual = 0.062196, Final residual = 0.000618223, No Iterations 85
diagonal:  Solving for rho, Initial residual = 0, Final residual = 0, No Iterations 0
time step continuity errors : sum local = 6.93335e-08, global = 8.88008e-15, cumulative = 1.11192e-12
DICPCG:  Solving for p_rgh, Initial residual = 0.0320866, Final residual = 8.55994e-08, No Iterations 313
diagonal:  Solving for rho, Initial residual = 0, Final residual = 0, No Iterations 0
time step continuity errors : sum local = 1.40467e-08, global = -3.57245e-14, cumulative = 1.0762e-12
ExecutionTime = 42.86 s  ClockTime = 45 s

Courant Number mean: 0.00304455 max: 0.434777
deltaT = 0.0323714
Time = 0.320201

diagonal:  Solving for rho, Initial residual = 0, Final residual = 0, No Iterations 0
PIMPLE: iteration 1
DICPCG:  Solving for p_rgh, Initial residual = 0.0530651, Final residual = 0.000526798, No Iterations 74
diagonal:  Solving for rho, Initial residual = 0, Final residual = 0, No Iterations 0
time step continuity errors : sum local = 5.73815e-08, global = 1.73893e-14, cumulative = 1.09359e-12
DICPCG:  Solving for p_rgh, Initial residual = 0.0305008, Final residual = 9.30245e-08, No Iterations 313
diagonal:  Solving for rho, Initial residual = 0, Final residual = 0, No Iterations 0
time step continuity errors : sum local = 1.00447e-08, global = 1.12595e-14, cumulative = 1.10485e-12
ExecutionTime = 44.01 s  ClockTime = 46 s

Courant Number mean: 0.00324537 max: 0.424195
deltaT = 0.0357789
Time = 0.35598

diagonal:  Solving for rho, Initial residual = 0, Final residual = 0, No Iterations 0
PIMPLE: iteration 1
DICPCG:  Solving for p_rgh, Initial residual = 0.0451731, Final residual = 0.000443726, No Iterations 82
diagonal:  Solving for rho, Initial residual = 0, Final residual = 0, No Iterations 0
time step continuity errors : sum local = 4.98698e-08, global = 3.45801e-14, cumulative = 1.13943e-12
DICPCG:  Solving for p_rgh, Initial residual = 0.0280931, Final residual = 8.10102e-08, No Iterations 314
diagonal:  Solving for rho, Initial residual = 0, Final residual = 0, No Iterations 0
time step continuity errors : sum local = 8.67875e-09, global = -9.34069e-15, cumulative = 1.13009e-12
ExecutionTime = 45.19 s  ClockTime = 48 s

Courant Number mean: 0.00350435 max: 0.415842
deltaT = 0.0402512
Time = 0.396231

diagonal:  Solving for rho, Initial residual = 0, Final residual = 0, No Iterations 0
PIMPLE: iteration 1
DICPCG:  Solving for p_rgh, Initial residual = 0.0437011, Final residual = 0.000433745, No Iterations 82
diagonal:  Solving for rho, Initial residual = 0, Final residual = 0, No Iterations 0
time step continuity errors : sum local = 5.20002e-08, global = 2.53176e-14, cumulative = 1.1554e-12
DICPCG:  Solving for p_rgh, Initial residual = 0.0260698, Final residual = 8.93088e-08, No Iterations 314
diagonal:  Solving for rho, Initial residual = 0, Final residual = 0, No Iterations 0
time step continuity errors : sum local = 7.71658e-09, global = 3.18623e-14, cumulative = 1.18727e-12
ExecutionTime = 46.35 s  ClockTime = 49 s

Courant Number mean: 0.0038507 max: 0.448484
deltaT = 0.0464437
Time = 0.442675

diagonal:  Solving for rho, Initial residual = 0, Final residual = 0, No Iterations 0
PIMPLE: iteration 1
DICPCG:  Solving for p_rgh, Initial residual = 0.041393, Final residual = 0.000409348, No Iterations 99
diagonal:  Solving for rho, Initial residual = 0, Final residual = 0, No Iterations 0
time step continuity errors : sum local = 5.64244e-08, global = -9.8272e-15, cumulative = 1.17744e-12
DICPCG:  Solving for p_rgh, Initial residual = 0.0237771, Final residual = 9.76597e-08, No Iterations 299
diagonal:  Solving for rho, Initial residual = 0, Final residual = 0, No Iterations 0
time step continuity errors : sum local = 8.47597e-09, global = -6.3436e-15, cumulative = 1.17109e-12
ExecutionTime = 47.53 s  ClockTime = 50 s

Courant Number mean: 0.0043417 max: 0.488756
deltaT = 0.0464437
Time = 0.489119

diagonal:  Solving for rho, Initial residual = 0, Final residual = 0, No Iterations 0
PIMPLE: iteration 1
DICPCG:  Solving for p_rgh, Initial residual = 0.0313204, Final residual = 0.000311536, No Iterations 103
diagonal:  Solving for rho, Initial residual = 0, Final residual = 0, No Iterations 0
time step continuity errors : sum local = 4.12127e-08, global = 4.07038e-15, cumulative = 1.17516e-12
DICPCG:  Solving for p_rgh, Initial residual = 0.0213047, Final residual = 8.53078e-08, No Iterations 314
diagonal:  Solving for rho, Initial residual = 0, Final residual = 0, No Iterations 0
time step continuity errors : sum local = 7.63004e-09, global = -8.44061e-15, cumulative = 1.16672e-12
ExecutionTime = 48.73 s  ClockTime = 51 s

Courant Number mean: 0.00424907 max: 0.459058
deltaT = 0.0510881
Time = 0.540207

diagonal:  Solving for rho, Initial residual = 0, Final residual = 0, No Iterations 0
PIMPLE: iteration 1
DICPCG:  Solving for p_rgh, Initial residual = 0.0297527, Final residual = 0.000293547, No Iterations 106
diagonal:  Solving for rho, Initial residual = 0, Final residual = 0, No Iterations 0
time step continuity errors : sum local = 3.98966e-08, global = 5.34711e-15, cumulative = 1.17207e-12
DICPCG:  Solving for p_rgh, Initial residual = 0.0198173, Final residual = 8.41997e-08, No Iterations 314
diagonal:  Solving for rho, Initial residual = 0, Final residual = 0, No Iterations 0
time step continuity errors : sum local = 6.71351e-09, global = 1.27983e-14, cumulative = 1.18487e-12
ExecutionTime = 49.93 s  ClockTime = 52 s

Courant Number mean: 0.00457548 max: 0.478573
deltaT = 0.0510881
Time = 0.591295

diagonal:  Solving for rho, Initial residual = 0, Final residual = 0, No Iterations 0
PIMPLE: iteration 1
DICPCG:  Solving for p_rgh, Initial residual = 0.0249603, Final residual = 0.00023953, No Iterations 105
diagonal:  Solving for rho, Initial residual = 0, Final residual = 0, No Iterations 0
time step continuity errors : sum local = 3.09691e-08, global = -2.31267e-14, cumulative = 1.16174e-12
DICPCG:  Solving for p_rgh, Initial residual = 0.0177379, Final residual = 8.73406e-08, No Iterations 313
diagonal:  Solving for rho, Initial residual = 0, Final residual = 0, No Iterations 0
time step continuity errors : sum local = 6.2684e-09, global = -2.33533e-15, cumulative = 1.15941e-12
ExecutionTime = 51.17 s  ClockTime = 54 s

Courant Number mean: 0.0044831 max: 0.451304
deltaT = 0.0583864
Time = 0.649681

diagonal:  Solving for rho, Initial residual = 0, Final residual = 0, No Iterations 0
PIMPLE: iteration 1
DICPCG:  Solving for p_rgh, Initial residual = 0.0237813, Final residual = 0.000229348, No Iterations 110
diagonal:  Solving for rho, Initial residual = 0, Final residual = 0, No Iterations 0
time step continuity errors : sum local = 3.29e-08, global = -7.13027e-15, cumulative = 1.15228e-12
DICPCG:  Solving for p_rgh, Initial residual = 0.0162519, Final residual = 9.59845e-08, No Iterations 313
diagonal:  Solving for rho, Initial residual = 0, Final residual = 0, No Iterations 0
time step continuity errors : sum local = 6.96283e-09, global = -2.94598e-14, cumulative = 1.12282e-12
ExecutionTime = 52.45 s  ClockTime = 55 s

Courant Number mean: 0.00501994 max: 0.481784
deltaT = 0.0583864
Time = 0.708068

diagonal:  Solving for rho, Initial residual = 0, Final residual = 0, No Iterations 0
PIMPLE: iteration 1
DICPCG:  Solving for p_rgh, Initial residual = 0.0233399, Final residual = 0.000231681, No Iterations 104
diagonal:  Solving for rho, Initial residual = 0, Final residual = 0, No Iterations 0
time step continuity errors : sum local = 3.25059e-08, global = 4.75144e-14, cumulative = 1.17033e-12
DICPCG:  Solving for p_rgh, Initial residual = 0.014857, Final residual = 9.49278e-08, No Iterations 312
diagonal:  Solving for rho, Initial residual = 0, Final residual = 0, No Iterations 0
time step continuity errors : sum local = 7.10585e-09, global = 3.1274e-14, cumulative = 1.20161e-12
ExecutionTime = 53.65 s  ClockTime = 56 s

Courant Number mean: 0.00492243 max: 0.448934
deltaT = 0.072983
Time = 0.781051

diagonal:  Solving for rho, Initial residual = 0, Final residual = 0, No Iterations 0
PIMPLE: iteration 1
DICPCG:  Solving for p_rgh, Initial residual = 0.0241164, Final residual = 0.000239168, No Iterations 106
diagonal:  Solving for rho, Initial residual = 0, Final residual = 0, No Iterations 0
time step continuity errors : sum local = 4.07157e-08, global = 3.80825e-15, cumulative = 1.20541e-12
DICPCG:  Solving for p_rgh, Initial residual = 0.013917, Final residual = 9.70707e-08, No Iterations 312
diagonal:  Solving for rho, Initial residual = 0, Final residual = 0, No Iterations 0
time step continuity errors : sum local = 8.6554e-09, global = -1.02814e-14, cumulative = 1.19513e-12
ExecutionTime = 54.91 s  ClockTime = 57 s

Courant Number mean: 0.00603166 max: 0.517787
deltaT = 0.072983
Time = 0.854034

diagonal:  Solving for rho, Initial residual = 0, Final residual = 0, No Iterations 0
PIMPLE: iteration 1
DICPCG:  Solving for p_rgh, Initial residual = 0.0200552, Final residual = 0.000196183, No Iterations 102
diagonal:  Solving for rho, Initial residual = 0, Final residual = 0, No Iterations 0
time step continuity errors : sum local = 3.41846e-08, global = 2.01773e-14, cumulative = 1.21531e-12
DICPCG:  Solving for p_rgh, Initial residual = 0.0122947, Final residual = 9.78634e-08, No Iterations 309
diagonal:  Solving for rho, Initial residual = 0, Final residual = 0, No Iterations 0
time step continuity errors : sum local = 8.79192e-09, global = -2.78425e-14, cumulative = 1.18747e-12
ExecutionTime = 56.18 s  ClockTime = 59 s

Courant Number mean: 0.00591682 max: 0.477371
deltaT = 0.072983
Time = 0.927017

diagonal:  Solving for rho, Initial residual = 0, Final residual = 0, No Iterations 0
PIMPLE: iteration 1
DICPCG:  Solving for p_rgh, Initial residual = 0.0183554, Final residual = 0.000179891, No Iterations 102
diagonal:  Solving for rho, Initial residual = 0, Final residual = 0, No Iterations 0
time step continuity errors : sum local = 3.02415e-08, global = 5.45648e-14, cumulative = 1.24203e-12
DICPCG:  Solving for p_rgh, Initial residual = 0.0110566, Final residual = 9.00345e-08, No Iterations 305
diagonal:  Solving for rho, Initial residual = 0, Final residual = 0, No Iterations 0
time step continuity errors : sum local = 8.62839e-09, global = 2.92127e-14, cumulative = 1.27125e-12
ExecutionTime = 57.63 s  ClockTime = 60 s

Courant Number mean: 0.00580816 max: 0.440033
deltaT = 0.072983
Time = 1

diagonal:  Solving for rho, Initial residual = 0, Final residual = 0, No Iterations 0
PIMPLE: iteration 1
DICPCG:  Solving for p_rgh, Initial residual = 0.0169674, Final residual = 0.000156323, No Iterations 103
diagonal:  Solving for rho, Initial residual = 0, Final residual = 0, No Iterations 0
time step continuity errors : sum local = 2.5553e-08, global = -2.05435e-14, cumulative = 1.2507e-12
DICPCG:  Solving for p_rgh, Initial residual = 0.0100268, Final residual = 9.18979e-08, No Iterations 306
diagonal:  Solving for rho, Initial residual = 0, Final residual = 0, No Iterations 0
time step continuity errors : sum local = 8.45524e-09, global = 1.88784e-14, cumulative = 1.26958e-12
ExecutionTime = 59.56 s  ClockTime = 63 s

Courant Number mean: 0.00570454 max: 0.409783
deltaT = 0.0833333
Time = 1.08333

diagonal:  Solving for rho, Initial residual = 0, Final residual = 0, No Iterations 0
PIMPLE: iteration 1
DICPCG:  Solving for p_rgh, Initial residual = 0.0169046, Final residual = 0.000166008, No Iterations 103
diagonal:  Solving for rho, Initial residual = 0, Final residual = 0, No Iterations 0
time step continuity errors : sum local = 3.00084e-08, global = -2.96607e-14, cumulative = 1.23992e-12
DICPCG:  Solving for p_rgh, Initial residual = 0.0091428, Final residual = 9.43481e-08, No Iterations 305
diagonal:  Solving for rho, Initial residual = 0, Final residual = 0, No Iterations 0
time step continuity errors : sum local = 9.71956e-09, global = -2.39871e-14, cumulative = 1.21593e-12
ExecutionTime = 60.76 s  ClockTime = 64 s

Courant Number mean: 0.00639782 max: 0.434458
deltaT = 0.0916667
Time = 1.175

diagonal:  Solving for rho, Initial residual = 0, Final residual = 0, No Iterations 0
PIMPLE: iteration 1
DICPCG:  Solving for p_rgh, Initial residual = 0.0156125, Final residual = 0.00014541, No Iterations 103
diagonal:  Solving for rho, Initial residual = 0, Final residual = 0, No Iterations 0
time step continuity errors : sum local = 2.93917e-08, global = -3.13058e-16, cumulative = 1.21562e-12
DICPCG:  Solving for p_rgh, Initial residual = 0.00842861, Final residual = 9.86096e-08, No Iterations 305
diagonal:  Solving for rho, Initial residual = 0, Final residual = 0, No Iterations 0
time step continuity errors : sum local = 1.09565e-08, global = -2.10881e-14, cumulative = 1.19453e-12
ExecutionTime = 62 s  ClockTime = 65 s

Courant Number mean: 0.00691407 max: 0.44338
deltaT = 0.103125
Time = 1.27812

diagonal:  Solving for rho, Initial residual = 0, Final residual = 0, No Iterations 0
PIMPLE: iteration 1
DICPCG:  Solving for p_rgh, Initial residual = 0.0151275, Final residual = 0.000148774, No Iterations 102
diagonal:  Solving for rho, Initial residual = 0, Final residual = 0, No Iterations 0
time step continuity errors : sum local = 3.32034e-08, global = 2.80942e-14, cumulative = 1.22263e-12
DICPCG:  Solving for p_rgh, Initial residual = 0.00782344, Final residual = 9.55949e-08, No Iterations 305
diagonal:  Solving for rho, Initial residual = 0, Final residual = 0, No Iterations 0
time step continuity errors : sum local = 1.26312e-08, global = 1.89021e-14, cumulative = 1.24153e-12
ExecutionTime = 63.19 s  ClockTime = 67 s

Courant Number mean: 0.00764292 max: 0.462801
deltaT = 0.120313
Time = 1.39844

diagonal:  Solving for rho, Initial residual = 0, Final residual = 0, No Iterations 0
PIMPLE: iteration 1
DICPCG:  Solving for p_rgh, Initial residual = 0.0133801, Final residual = 0.000131358, No Iterations 103
diagonal:  Solving for rho, Initial residual = 0, Final residual = 0, No Iterations 0
time step continuity errors : sum local = 3.48215e-08, global = 6.07077e-15, cumulative = 1.2476e-12
DICPCG:  Solving for p_rgh, Initial residual = 0.00711192, Final residual = 8.81466e-08, No Iterations 305
diagonal:  Solving for rho, Initial residual = 0, Final residual = 0, No Iterations 0
time step continuity errors : sum local = 1.49624e-08, global = 1.19322e-14, cumulative = 1.25953e-12
ExecutionTime = 64.55 s  ClockTime = 68 s

Courant Number mean: 0.00876258 max: 0.500099
deltaT = 0.120313
Time = 1.51875

diagonal:  Solving for rho, Initial residual = 0, Final residual = 0, No Iterations 0
PIMPLE: iteration 1
DICPCG:  Solving for p_rgh, Initial residual = 0.0121785, Final residual = 0.000120542, No Iterations 105
diagonal:  Solving for rho, Initial residual = 0, Final residual = 0, No Iterations 0
time step continuity errors : sum local = 3.26427e-08, global = 2.30549e-14, cumulative = 1.28259e-12
DICPCG:  Solving for p_rgh, Initial residual = 0.00659581, Final residual = 9.49211e-08, No Iterations 304
diagonal:  Solving for rho, Initial residual = 0, Final residual = 0, No Iterations 0
time step continuity errors : sum local = 1.51979e-08, global = 2.84528e-15, cumulative = 1.28543e-12
ExecutionTime = 65.82 s  ClockTime = 69 s

Courant Number mean: 0.00861423 max: 0.464208
deltaT = 0.120313
Time = 1.63906

diagonal:  Solving for rho, Initial residual = 0, Final residual = 0, No Iterations 0
PIMPLE: iteration 1
DICPCG:  Solving for p_rgh, Initial residual = 0.0115032, Final residual = 0.000111419, No Iterations 106
diagonal:  Solving for rho, Initial residual = 0, Final residual = 0, No Iterations 0
time step continuity errors : sum local = 2.92595e-08, global = -1.31203e-14, cumulative = 1.27231e-12
DICPCG:  Solving for p_rgh, Initial residual = 0.00615585, Final residual = 8.46748e-08, No Iterations 304
diagonal:  Solving for rho, Initial residual = 0, Final residual = 0, No Iterations 0
time step continuity errors : sum local = 1.49626e-08, global = 2.6635e-15, cumulative = 1.27497e-12
ExecutionTime = 67.03 s  ClockTime = 70 s

Courant Number mean: 0.00847113 max: 0.431772
deltaT = 0.120313
Time = 1.75937

diagonal:  Solving for rho, Initial residual = 0, Final residual = 0, No Iterations 0
PIMPLE: iteration 1
DICPCG:  Solving for p_rgh, Initial residual = 0.0108741, Final residual = 0.000102594, No Iterations 108
diagonal:  Solving for rho, Initial residual = 0, Final residual = 0, No Iterations 0
time step continuity errors : sum local = 2.71654e-08, global = 1.63139e-14, cumulative = 1.29129e-12
DICPCG:  Solving for p_rgh, Initial residual = 0.00574142, Final residual = 8.30547e-08, No Iterations 304
diagonal:  Solving for rho, Initial residual = 0, Final residual = 0, No Iterations 0
time step continuity errors : sum local = 1.51428e-08, global = -2.60915e-14, cumulative = 1.2652e-12
ExecutionTime = 68.2 s  ClockTime = 72 s

Courant Number mean: 0.00833319 max: 0.402316
deltaT = 0.120313
Time = 1.87969

diagonal:  Solving for rho, Initial residual = 0, Final residual = 0, No Iterations 0
PIMPLE: iteration 1
DICPCG:  Solving for p_rgh, Initial residual = 0.0102752, Final residual = 0.000100612, No Iterations 108
diagonal:  Solving for rho, Initial residual = 0, Final residual = 0, No Iterations 0
time step continuity errors : sum local = 2.59655e-08, global = 7.6898e-15, cumulative = 1.27289e-12
DICPCG:  Solving for p_rgh, Initial residual = 0.00539322, Final residual = 9.49948e-08, No Iterations 303
diagonal:  Solving for rho, Initial residual = 0, Final residual = 0, No Iterations 0
time step continuity errors : sum local = 1.48125e-08, global = -8.09201e-15, cumulative = 1.26479e-12
ExecutionTime = 69.32 s  ClockTime = 73 s

Courant Number mean: 0.00819964 max: 0.376026
deltaT = 0.120313
Time = 2

diagonal:  Solving for rho, Initial residual = 0, Final residual = 0, No Iterations 0
PIMPLE: iteration 1
DICPCG:  Solving for p_rgh, Initial residual = 0.00963051, Final residual = 9.23926e-05, No Iterations 109
diagonal:  Solving for rho, Initial residual = 0, Final residual = 0, No Iterations 0
time step continuity errors : sum local = 2.38951e-08, global = 3.51431e-14, cumulative = 1.29994e-12
DICPCG:  Solving for p_rgh, Initial residual = 0.00506807, Final residual = 9.5944e-08, No Iterations 303
diagonal:  Solving for rho, Initial residual = 0, Final residual = 0, No Iterations 0
time step continuity errors : sum local = 1.50013e-08, global = 1.67954e-14, cumulative = 1.31673e-12
ExecutionTime = 71.25 s  ClockTime = 75 s

Courant Number mean: 0.00807011 max: 0.353479
deltaT = 0.142857
Time = 2.14286

diagonal:  Solving for rho, Initial residual = 0, Final residual = 0, No Iterations 0
PIMPLE: iteration 1
DICPCG:  Solving for p_rgh, Initial residual = 0.00951901, Final residual = 9.36342e-05, No Iterations 109
diagonal:  Solving for rho, Initial residual = 0, Final residual = 0, No Iterations 0
time step continuity errors : sum local = 2.8021e-08, global = 4.19011e-14, cumulative = 1.35863e-12
DICPCG:  Solving for p_rgh, Initial residual = 0.00462344, Final residual = 9.58605e-08, No Iterations 303
diagonal:  Solving for rho, Initial residual = 0, Final residual = 0, No Iterations 0
time step continuity errors : sum local = 1.83171e-08, global = 1.87673e-14, cumulative = 1.3774e-12
ExecutionTime = 72.53 s  ClockTime = 77 s

Courant Number mean: 0.00943138 max: 0.394166
deltaT = 0.171429
Time = 2.31429

diagonal:  Solving for rho, Initial residual = 0, Final residual = 0, No Iterations 0
PIMPLE: iteration 1
DICPCG:  Solving for p_rgh, Initial residual = 0.00903751, Final residual = 8.88033e-05, No Iterations 112
diagonal:  Solving for rho, Initial residual = 0, Final residual = 0, No Iterations 0
time step continuity errors : sum local = 3.39875e-08, global = -1.51694e-15, cumulative = 1.37588e-12
DICPCG:  Solving for p_rgh, Initial residual = 0.00432235, Final residual = 9.61863e-08, No Iterations 303
diagonal:  Solving for rho, Initial residual = 0, Final residual = 0, No Iterations 0
time step continuity errors : sum local = 2.27028e-08, global = 6.59655e-15, cumulative = 1.38248e-12
ExecutionTime = 73.75 s  ClockTime = 78 s

Courant Number mean: 0.0111396 max: 0.444105
deltaT = 0.171429
Time = 2.48571

diagonal:  Solving for rho, Initial residual = 0, Final residual = 0, No Iterations 0
PIMPLE: iteration 1
DICPCG:  Solving for p_rgh, Initial residual = 0.00845206, Final residual = 8.03479e-05, No Iterations 109
diagonal:  Solving for rho, Initial residual = 0, Final residual = 0, No Iterations 0
time step continuity errors : sum local = 3.08392e-08, global = -2.12382e-14, cumulative = 1.36124e-12
DICPCG:  Solving for p_rgh, Initial residual = 0.00420396, Final residual = 9.38769e-08, No Iterations 302
diagonal:  Solving for rho, Initial residual = 0, Final residual = 0, No Iterations 0
time step continuity errors : sum local = 2.21675e-08, global = -3.93777e-14, cumulative = 1.32186e-12
ExecutionTime = 74.94 s  ClockTime = 79 s

Courant Number mean: 0.0109664 max: 0.417695
deltaT = 0.171429
Time = 2.65714

diagonal:  Solving for rho, Initial residual = 0, Final residual = 0, No Iterations 0
PIMPLE: iteration 1
DICPCG:  Solving for p_rgh, Initial residual = 0.00817353, Final residual = 8.00655e-05, No Iterations 109
diagonal:  Solving for rho, Initial residual = 0, Final residual = 0, No Iterations 0
time step continuity errors : sum local = 3.02296e-08, global = 1.1254e-14, cumulative = 1.33312e-12
DICPCG:  Solving for p_rgh, Initial residual = 0.00405427, Final residual = 9.51546e-08, No Iterations 300
diagonal:  Solving for rho, Initial residual = 0, Final residual = 0, No Iterations 0
time step continuity errors : sum local = 2.24565e-08, global = 2.58723e-14, cumulative = 1.35899e-12
ExecutionTime = 76.15 s  ClockTime = 80 s

Courant Number mean: 0.0107975 max: 0.393447
deltaT = 0.171429
Time = 2.82857

diagonal:  Solving for rho, Initial residual = 0, Final residual = 0, No Iterations 0
PIMPLE: iteration 1
DICPCG:  Solving for p_rgh, Initial residual = 0.00794602, Final residual = 7.55671e-05, No Iterations 109
diagonal:  Solving for rho, Initial residual = 0, Final residual = 0, No Iterations 0
time step continuity errors : sum local = 2.84471e-08, global = -1.98364e-15, cumulative = 1.35701e-12
DICPCG:  Solving for p_rgh, Initial residual = 0.00392769, Final residual = 9.36349e-08, No Iterations 303
diagonal:  Solving for rho, Initial residual = 0, Final residual = 0, No Iterations 0
time step continuity errors : sum local = 2.22151e-08, global = 2.47246e-14, cumulative = 1.38173e-12
ExecutionTime = 77.38 s  ClockTime = 82 s

Courant Number mean: 0.0106329 max: 0.371134
deltaT = 0.171429
Time = 3

diagonal:  Solving for rho, Initial residual = 0, Final residual = 0, No Iterations 0
PIMPLE: iteration 1
DICPCG:  Solving for p_rgh, Initial residual = 0.00773926, Final residual = 7.44698e-05, No Iterations 109
diagonal:  Solving for rho, Initial residual = 0, Final residual = 0, No Iterations 0
time step continuity errors : sum local = 2.77336e-08, global = -6.55601e-14, cumulative = 1.31617e-12
DICPCG:  Solving for p_rgh, Initial residual = 0.0037916, Final residual = 9.74315e-08, No Iterations 303
diagonal:  Solving for rho, Initial residual = 0, Final residual = 0, No Iterations 0
time step continuity errors : sum local = 2.22242e-08, global = -2.93505e-14, cumulative = 1.28682e-12
ExecutionTime = 79.15 s  ClockTime = 84 s

Courant Number mean: 0.0104724 max: 0.350521
deltaT = 0.2
Time = 3.2

diagonal:  Solving for rho, Initial residual = 0, Final residual = 0, No Iterations 0
PIMPLE: iteration 1
DICPCG:  Solving for p_rgh, Initial residual = 0.00767497, Final residual = 7.62541e-05, No Iterations 108
diagonal:  Solving for rho, Initial residual = 0, Final residual = 0, No Iterations 0
time step continuity errors : sum local = 3.19617e-08, global = -2.82001e-15, cumulative = 1.284e-12
DICPCG:  Solving for p_rgh, Initial residual = 0.0035514, Final residual = 9.98686e-08, No Iterations 302
diagonal:  Solving for rho, Initial residual = 0, Final residual = 0, No Iterations 0
time step continuity errors : sum local = 2.67248e-08, global = 1.58774e-14, cumulative = 1.29988e-12
ExecutionTime = 80.56 s  ClockTime = 86 s

Courant Number mean: 0.0120339 max: 0.386349
deltaT = 0.2
Time = 3.4

diagonal:  Solving for rho, Initial residual = 0, Final residual = 0, No Iterations 0
PIMPLE: iteration 1
DICPCG:  Solving for p_rgh, Initial residual = 0.00724659, Final residual = 7.24568e-05, No Iterations 116
diagonal:  Solving for rho, Initial residual = 0, Final residual = 0, No Iterations 0
time step continuity errors : sum local = 3.27549e-08, global = 2.55871e-14, cumulative = 1.32547e-12
DICPCG:  Solving for p_rgh, Initial residual = 0.00348579, Final residual = 9.69623e-08, No Iterations 303
diagonal:  Solving for rho, Initial residual = 0, Final residual = 0, No Iterations 0
time step continuity errors : sum local = 2.66992e-08, global = -6.6273e-15, cumulative = 1.31884e-12
ExecutionTime = 81.76 s  ClockTime = 87 s

Courant Number mean: 0.0118542 max: 0.365433
deltaT = 0.2
Time = 3.6

diagonal:  Solving for rho, Initial residual = 0, Final residual = 0, No Iterations 0
PIMPLE: iteration 1
DICPCG:  Solving for p_rgh, Initial residual = 0.00695394, Final residual = 6.75813e-05, No Iterations 109
diagonal:  Solving for rho, Initial residual = 0, Final residual = 0, No Iterations 0
time step continuity errors : sum local = 2.9689e-08, global = -5.85494e-15, cumulative = 1.31298e-12
DICPCG:  Solving for p_rgh, Initial residual = 0.00333016, Final residual = 9.61339e-08, No Iterations 303
diagonal:  Solving for rho, Initial residual = 0, Final residual = 0, No Iterations 0
time step continuity errors : sum local = 2.66719e-08, global = 1.42961e-14, cumulative = 1.32728e-12
ExecutionTime = 83.01 s  ClockTime = 88 s

Courant Number mean: 0.0116785 max: 0.346112
deltaT = 0.2
Time = 3.8

diagonal:  Solving for rho, Initial residual = 0, Final residual = 0, No Iterations 0
PIMPLE: iteration 1
DICPCG:  Solving for p_rgh, Initial residual = 0.00684381, Final residual = 6.82246e-05, No Iterations 109
diagonal:  Solving for rho, Initial residual = 0, Final residual = 0, No Iterations 0
time step continuity errors : sum local = 2.99385e-08, global = -7.92202e-15, cumulative = 1.31936e-12
DICPCG:  Solving for p_rgh, Initial residual = 0.00321028, Final residual = 9.90543e-08, No Iterations 302
diagonal:  Solving for rho, Initial residual = 0, Final residual = 0, No Iterations 0
time step continuity errors : sum local = 2.66746e-08, global = -2.81416e-14, cumulative = 1.29122e-12
ExecutionTime = 84.35 s  ClockTime = 90 s

Courant Number mean: 0.0115067 max: 0.328239
deltaT = 0.2
Time = 4

diagonal:  Solving for rho, Initial residual = 0, Final residual = 0, No Iterations 0
PIMPLE: iteration 1
DICPCG:  Solving for p_rgh, Initial residual = 0.00672488, Final residual = 6.59778e-05, No Iterations 109
diagonal:  Solving for rho, Initial residual = 0, Final residual = 0, No Iterations 0
time step continuity errors : sum local = 2.90851e-08, global = -1.10899e-14, cumulative = 1.28013e-12
DICPCG:  Solving for p_rgh, Initial residual = 0.00312847, Final residual = 9.81636e-08, No Iterations 302
diagonal:  Solving for rho, Initial residual = 0, Final residual = 0, No Iterations 0
time step continuity errors : sum local = 2.64476e-08, global = 1.94868e-14, cumulative = 1.29961e-12
ExecutionTime = 86.16 s  ClockTime = 92 s

Courant Number mean: 0.0113385 max: 0.311685
deltaT = 0.25
Time = 4.25

diagonal:  Solving for rho, Initial residual = 0, Final residual = 0, No Iterations 0
PIMPLE: iteration 1
DICPCG:  Solving for p_rgh, Initial residual = 0.00679756, Final residual = 6.69353e-05, No Iterations 109
diagonal:  Solving for rho, Initial residual = 0, Final residual = 0, No Iterations 0
time step continuity errors : sum local = 3.63724e-08, global = -7.92182e-15, cumulative = 1.29169e-12
DICPCG:  Solving for p_rgh, Initial residual = 0.00288498, Final residual = 9.72571e-08, No Iterations 301
diagonal:  Solving for rho, Initial residual = 0, Final residual = 0, No Iterations 0
time step continuity errors : sum local = 3.37742e-08, global = 3.71787e-15, cumulative = 1.29541e-12
ExecutionTime = 87.34 s  ClockTime = 93 s

Courant Number mean: 0.0139661 max: 0.37013
deltaT = 0.25
Time = 4.5

diagonal:  Solving for rho, Initial residual = 0, Final residual = 0, No Iterations 0
PIMPLE: iteration 1
DICPCG:  Solving for p_rgh, Initial residual = 0.00634698, Final residual = 5.91041e-05, No Iterations 118
diagonal:  Solving for rho, Initial residual = 0, Final residual = 0, No Iterations 0
time step continuity errors : sum local = 3.56082e-08, global = 7.76842e-15, cumulative = 1.30318e-12
DICPCG:  Solving for p_rgh, Initial residual = 0.00286123, Final residual = 9.63902e-08, No Iterations 301
diagonal:  Solving for rho, Initial residual = 0, Final residual = 0, No Iterations 0
time step continuity errors : sum local = 3.28991e-08, global = -3.70265e-14, cumulative = 1.26615e-12
ExecutionTime = 88.68 s  ClockTime = 95 s

Courant Number mean: 0.0137637 max: 0.352464
deltaT = 0.25
Time = 4.75

diagonal:  Solving for rho, Initial residual = 0, Final residual = 0, No Iterations 0
PIMPLE: iteration 1
DICPCG:  Solving for p_rgh, Initial residual = 0.00629402, Final residual = 6.18836e-05, No Iterations 110
diagonal:  Solving for rho, Initial residual = 0, Final residual = 0, No Iterations 0
time step continuity errors : sum local = 3.52931e-08, global = 1.78552e-14, cumulative = 1.28401e-12
DICPCG:  Solving for p_rgh, Initial residual = 0.002812, Final residual = 9.93686e-08, No Iterations 301
diagonal:  Solving for rho, Initial residual = 0, Final residual = 0, No Iterations 0
time step continuity errors : sum local = 3.31713e-08, global = 6.03675e-15, cumulative = 1.29004e-12
ExecutionTime = 90.08 s  ClockTime = 96 s

Courant Number mean: 0.0135657 max: 0.336461
deltaT = 0.25
Time = 5

diagonal:  Solving for rho, Initial residual = 0, Final residual = 0, No Iterations 0
PIMPLE: iteration 1
DICPCG:  Solving for p_rgh, Initial residual = 0.00629572, Final residual = 6.24783e-05, No Iterations 113
diagonal:  Solving for rho, Initial residual = 0, Final residual = 0, No Iterations 0
time step continuity errors : sum local = 3.5642e-08, global = -2.14358e-15, cumulative = 1.2879e-12
DICPCG:  Solving for p_rgh, Initial residual = 0.00280457, Final residual = 9.94444e-08, No Iterations 301
diagonal:  Solving for rho, Initial residual = 0, Final residual = 0, No Iterations 0
time step continuity errors : sum local = 3.33798e-08, global = 1.76961e-14, cumulative = 1.3056e-12
ExecutionTime = 91.9 s  ClockTime = 99 s

Courant Number mean: 0.0133716 max: 0.321527
deltaT = 0.333333
Time = 5.33333

diagonal:  Solving for rho, Initial residual = 0, Final residual = 0, No Iterations 0
PIMPLE: iteration 1
DICPCG:  Solving for p_rgh, Initial residual = 0.00637134, Final residual = 6.19598e-05, No Iterations 110
diagonal:  Solving for rho, Initial residual = 0, Final residual = 0, No Iterations 0
time step continuity errors : sum local = 4.62469e-08, global = -1.04163e-14, cumulative = 1.29518e-12
DICPCG:  Solving for p_rgh, Initial residual = 0.00258329, Final residual = 9.29034e-08, No Iterations 301
diagonal:  Solving for rho, Initial residual = 0, Final residual = 0, No Iterations 0
time step continuity errors : sum local = 4.48777e-08, global = 4.69739e-15, cumulative = 1.29988e-12
ExecutionTime = 93.12 s  ClockTime = 100 s

Courant Number mean: 0.0175739 max: 0.409854
deltaT = 0.333333
Time = 5.66667

diagonal:  Solving for rho, Initial residual = 0, Final residual = 0, No Iterations 0
PIMPLE: iteration 1
DICPCG:  Solving for p_rgh, Initial residual = 0.00585153, Final residual = 5.74883e-05, No Iterations 201
diagonal:  Solving for rho, Initial residual = 0, Final residual = 0, No Iterations 0
time step continuity errors : sum local = 5.20076e-08, global = -7.4173e-15, cumulative = 1.29246e-12
DICPCG:  Solving for p_rgh, Initial residual = 0.00256827, Final residual = 8.8624e-08, No Iterations 301
diagonal:  Solving for rho, Initial residual = 0, Final residual = 0, No Iterations 0
time step continuity errors : sum local = 4.43197e-08, global = 1.84118e-14, cumulative = 1.31087e-12
ExecutionTime = 94.53 s  ClockTime = 101 s

Courant Number mean: 0.0173239 max: 0.392277
deltaT = 0.333333
Time = 6

diagonal:  Solving for rho, Initial residual = 0, Final residual = 0, No Iterations 0
PIMPLE: iteration 1
DICPCG:  Solving for p_rgh, Initial residual = 0.0057573, Final residual = 5.39951e-05, No Iterations 123
diagonal:  Solving for rho, Initial residual = 0, Final residual = 0, No Iterations 0
time step continuity errors : sum local = 4.68152e-08, global = -2.39539e-14, cumulative = 1.28692e-12
DICPCG:  Solving for p_rgh, Initial residual = 0.00252485, Final residual = 9.10513e-08, No Iterations 294
diagonal:  Solving for rho, Initial residual = 0, Final residual = 0, No Iterations 0
time step continuity errors : sum local = 4.32186e-08, global = 8.73624e-15, cumulative = 1.29565e-12
ExecutionTime = 96.49 s  ClockTime = 104 s

Courant Number mean: 0.0170783 max: 0.375861
deltaT = 0.333333
Time = 6.33333

diagonal:  Solving for rho, Initial residual = 0, Final residual = 0, No Iterations 0
PIMPLE: iteration 1
DICPCG:  Solving for p_rgh, Initial residual = 0.00570094, Final residual = 5.59063e-05, No Iterations 110
diagonal:  Solving for rho, Initial residual = 0, Final residual = 0, No Iterations 0
time step continuity errors : sum local = 4.56054e-08, global = -1.89296e-14, cumulative = 1.27672e-12
DICPCG:  Solving for p_rgh, Initial residual = 0.00248346, Final residual = 9.31602e-08, No Iterations 301
diagonal:  Solving for rho, Initial residual = 0, Final residual = 0, No Iterations 0
time step continuity errors : sum local = 4.42953e-08, global = -2.79443e-16, cumulative = 1.27644e-12
ExecutionTime = 97.78 s  ClockTime = 105 s

Courant Number mean: 0.016837 max: 0.360503
deltaT = 0.333333
Time = 6.66667

diagonal:  Solving for rho, Initial residual = 0, Final residual = 0, No Iterations 0
PIMPLE: iteration 1
DICPCG:  Solving for p_rgh, Initial residual = 0.00563108, Final residual = 5.38718e-05, No Iterations 115
diagonal:  Solving for rho, Initial residual = 0, Final residual = 0, No Iterations 0
time step continuity errors : sum local = 4.58567e-08, global = -3.54415e-14, cumulative = 1.241e-12
DICPCG:  Solving for p_rgh, Initial residual = 0.00245628, Final residual = 8.83599e-08, No Iterations 301
diagonal:  Solving for rho, Initial residual = 0, Final residual = 0, No Iterations 0
time step continuity errors : sum local = 4.37718e-08, global = -1.67233e-14, cumulative = 1.22428e-12
ExecutionTime = 99.15 s  ClockTime = 107 s

Courant Number mean: 0.0165997 max: 0.350752
deltaT = 0.333333
Time = 7

diagonal:  Solving for rho, Initial residual = 0, Final residual = 0, No Iterations 0
PIMPLE: iteration 1
DICPCG:  Solving for p_rgh, Initial residual = 0.00563453, Final residual = 5.50394e-05, No Iterations 111
diagonal:  Solving for rho, Initial residual = 0, Final residual = 0, No Iterations 0
time step continuity errors : sum local = 4.46374e-08, global = -4.95347e-14, cumulative = 1.17474e-12
DICPCG:  Solving for p_rgh, Initial residual = 0.00244719, Final residual = 9.08958e-08, No Iterations 301
diagonal:  Solving for rho, Initial residual = 0, Final residual = 0, No Iterations 0
time step continuity errors : sum local = 4.42562e-08, global = 9.41459e-15, cumulative = 1.18416e-12
ExecutionTime = 100.96 s  ClockTime = 110 s

Courant Number mean: 0.016366 max: 0.347095
deltaT = 0.333333
Time = 7.33333

diagonal:  Solving for rho, Initial residual = 0, Final residual = 0, No Iterations 0
PIMPLE: iteration 1
DICPCG:  Solving for p_rgh, Initial residual = 0.00557805, Final residual = 5.16919e-05, No Iterations 113
diagonal:  Solving for rho, Initial residual = 0, Final residual = 0, No Iterations 0
time step continuity errors : sum local = 4.39486e-08, global = -1.40865e-14, cumulative = 1.17007e-12
DICPCG:  Solving for p_rgh, Initial residual = 0.00242354, Final residual = 8.72687e-08, No Iterations 301
diagonal:  Solving for rho, Initial residual = 0, Final residual = 0, No Iterations 0
time step continuity errors : sum local = 4.49175e-08, global = -2.39602e-14, cumulative = 1.14611e-12
ExecutionTime = 102.24 s  ClockTime = 111 s

Courant Number mean: 0.0161358 max: 0.343394
deltaT = 0.333333
Time = 7.66667

diagonal:  Solving for rho, Initial residual = 0, Final residual = 0, No Iterations 0
PIMPLE: iteration 1
DICPCG:  Solving for p_rgh, Initial residual = 0.00549186, Final residual = 5.28696e-05, No Iterations 111
diagonal:  Solving for rho, Initial residual = 0, Final residual = 0, No Iterations 0
time step continuity errors : sum local = 4.34791e-08, global = 2.96602e-15, cumulative = 1.14908e-12
DICPCG:  Solving for p_rgh, Initial residual = 0.00238627, Final residual = 8.83038e-08, No Iterations 301
diagonal:  Solving for rho, Initial residual = 0, Final residual = 0, No Iterations 0
time step continuity errors : sum local = 4.39411e-08, global = 2.33733e-14, cumulative = 1.17245e-12
ExecutionTime = 103.49 s  ClockTime = 112 s

Courant Number mean: 0.0159093 max: 0.339665
deltaT = 0.333333
Time = 8

diagonal:  Solving for rho, Initial residual = 0, Final residual = 0, No Iterations 0
PIMPLE: iteration 1
DICPCG:  Solving for p_rgh, Initial residual = 0.00541904, Final residual = 5.15169e-05, No Iterations 111
diagonal:  Solving for rho, Initial residual = 0, Final residual = 0, No Iterations 0
time step continuity errors : sum local = 4.29589e-08, global = -7.91136e-15, cumulative = 1.16454e-12
DICPCG:  Solving for p_rgh, Initial residual = 0.00234596, Final residual = 9.9553e-08, No Iterations 300
diagonal:  Solving for rho, Initial residual = 0, Final residual = 0, No Iterations 0
time step continuity errors : sum local = 4.38275e-08, global = -1.23116e-14, cumulative = 1.15223e-12
ExecutionTime = 105.45 s  ClockTime = 115 s

Courant Number mean: 0.0156865 max: 0.336061
deltaT = 0.333333
Time = 8.33333

diagonal:  Solving for rho, Initial residual = 0, Final residual = 0, No Iterations 0
PIMPLE: iteration 1
DICPCG:  Solving for p_rgh, Initial residual = 0.00533996, Final residual = 5.14273e-05, No Iterations 110
diagonal:  Solving for rho, Initial residual = 0, Final residual = 0, No Iterations 0
time step continuity errors : sum local = 4.26206e-08, global = -1.33431e-14, cumulative = 1.13889e-12
DICPCG:  Solving for p_rgh, Initial residual = 0.00231218, Final residual = 8.90986e-08, No Iterations 300
diagonal:  Solving for rho, Initial residual = 0, Final residual = 0, No Iterations 0
time step continuity errors : sum local = 4.3522e-08, global = -1.17637e-14, cumulative = 1.12712e-12
ExecutionTime = 106.68 s  ClockTime = 116 s

Courant Number mean: 0.0154671 max: 0.332661
deltaT = 0.333333
Time = 8.66667

diagonal:  Solving for rho, Initial residual = 0, Final residual = 0, No Iterations 0
PIMPLE: iteration 1
DICPCG:  Solving for p_rgh, Initial residual = 0.00523178, Final residual = 5.09952e-05, No Iterations 109
diagonal:  Solving for rho, Initial residual = 0, Final residual = 0, No Iterations 0
time step continuity errors : sum local = 4.19976e-08, global = 2.07711e-14, cumulative = 1.14789e-12
DICPCG:  Solving for p_rgh, Initial residual = 0.00227892, Final residual = 9.278e-08, No Iterations 284
diagonal:  Solving for rho, Initial residual = 0, Final residual = 0, No Iterations 0
time step continuity errors : sum local = 4.33711e-08, global = 1.51663e-15, cumulative = 1.14941e-12
ExecutionTime = 107.92 s  ClockTime = 118 s

Courant Number mean: 0.0152509 max: 0.329278
deltaT = 0.333333
Time = 9

diagonal:  Solving for rho, Initial residual = 0, Final residual = 0, No Iterations 0
PIMPLE: iteration 1
DICPCG:  Solving for p_rgh, Initial residual = 0.00517198, Final residual = 4.98825e-05, No Iterations 109
diagonal:  Solving for rho, Initial residual = 0, Final residual = 0, No Iterations 0
time step continuity errors : sum local = 4.09237e-08, global = 2.05301e-14, cumulative = 1.16994e-12
DICPCG:  Solving for p_rgh, Initial residual = 0.0022562, Final residual = 9.49801e-08, No Iterations 284
diagonal:  Solving for rho, Initial residual = 0, Final residual = 0, No Iterations 0
time step continuity errors : sum local = 4.23528e-08, global = -1.31899e-14, cumulative = 1.15675e-12
ExecutionTime = 109.91 s  ClockTime = 120 s

Courant Number mean: 0.0150381 max: 0.325923
deltaT = 0.333333
Time = 9.33333

diagonal:  Solving for rho, Initial residual = 0, Final residual = 0, No Iterations 0
PIMPLE: iteration 1
DICPCG:  Solving for p_rgh, Initial residual = 0.00510533, Final residual = 4.82993e-05, No Iterations 109
diagonal:  Solving for rho, Initial residual = 0, Final residual = 0, No Iterations 0
time step continuity errors : sum local = 4.07711e-08, global = 2.32893e-14, cumulative = 1.18004e-12
DICPCG:  Solving for p_rgh, Initial residual = 0.00223918, Final residual = 8.65757e-08, No Iterations 300
diagonal:  Solving for rho, Initial residual = 0, Final residual = 0, No Iterations 0
time step continuity errors : sum local = 4.3268e-08, global = 3.66982e-14, cumulative = 1.21674e-12
ExecutionTime = 111.17 s  ClockTime = 122 s

Courant Number mean: 0.0148285 max: 0.322566
deltaT = 0.333333
Time = 9.66667

diagonal:  Solving for rho, Initial residual = 0, Final residual = 0, No Iterations 0
PIMPLE: iteration 1
DICPCG:  Solving for p_rgh, Initial residual = 0.00501114, Final residual = 4.86176e-05, No Iterations 108
diagonal:  Solving for rho, Initial residual = 0, Final residual = 0, No Iterations 0
time step continuity errors : sum local = 4.04632e-08, global = -1.76002e-14, cumulative = 1.19914e-12
DICPCG:  Solving for p_rgh, Initial residual = 0.00221196, Final residual = 9.29117e-08, No Iterations 299
diagonal:  Solving for rho, Initial residual = 0, Final residual = 0, No Iterations 0
time step continuity errors : sum local = 4.36998e-08, global = -3.14306e-14, cumulative = 1.16771e-12
ExecutionTime = 112.47 s  ClockTime = 123 s

Courant Number mean: 0.0146223 max: 0.319202
deltaT = 0.333333
Time = 10

diagonal:  Solving for rho, Initial residual = 0, Final residual = 0, No Iterations 0
PIMPLE: iteration 1
DICPCG:  Solving for p_rgh, Initial residual = 0.0049753, Final residual = 4.84785e-05, No Iterations 108
diagonal:  Solving for rho, Initial residual = 0, Final residual = 0, No Iterations 0
time step continuity errors : sum local = 3.99893e-08, global = 1.10284e-14, cumulative = 1.17874e-12
DICPCG:  Solving for p_rgh, Initial residual = 0.00218837, Final residual = 9.50718e-08, No Iterations 299
diagonal:  Solving for rho, Initial residual = 0, Final residual = 0, No Iterations 0
time step continuity errors : sum local = 4.38737e-08, global = 8.82953e-15, cumulative = 1.18756e-12
ExecutionTime = 114.4 s  ClockTime = 126 s

Courant Number mean: 0.0144192 max: 0.315846
deltaT = 0.333333
Time = 10.3333

diagonal:  Solving for rho, Initial residual = 0, Final residual = 0, No Iterations 0
PIMPLE: iteration 1
DICPCG:  Solving for p_rgh, Initial residual = 0.00489876, Final residual = 4.76179e-05, No Iterations 106
diagonal:  Solving for rho, Initial residual = 0, Final residual = 0, No Iterations 0
time step continuity errors : sum local = 3.94895e-08, global = -2.07638e-14, cumulative = 1.1668e-12
DICPCG:  Solving for p_rgh, Initial residual = 0.00216257, Final residual = 9.27781e-08, No Iterations 298
diagonal:  Solving for rho, Initial residual = 0, Final residual = 0, No Iterations 0
time step continuity errors : sum local = 4.36129e-08, global = -1.23141e-14, cumulative = 1.15449e-12
ExecutionTime = 115.71 s  ClockTime = 127 s

Courant Number mean: 0.0142191 max: 0.312486
deltaT = 0.333333
Time = 10.6667

diagonal:  Solving for rho, Initial residual = 0, Final residual = 0, No Iterations 0
PIMPLE: iteration 1
DICPCG:  Solving for p_rgh, Initial residual = 0.00484667, Final residual = 4.78719e-05, No Iterations 105
diagonal:  Solving for rho, Initial residual = 0, Final residual = 0, No Iterations 0
time step continuity errors : sum local = 3.89673e-08, global = 3.65155e-14, cumulative = 1.191e-12
DICPCG:  Solving for p_rgh, Initial residual = 0.00214259, Final residual = 9.30861e-08, No Iterations 296
diagonal:  Solving for rho, Initial residual = 0, Final residual = 0, No Iterations 0
time step continuity errors : sum local = 4.31707e-08, global = -1.14625e-14, cumulative = 1.17954e-12
ExecutionTime = 116.93 s  ClockTime = 128 s

Courant Number mean: 0.014022 max: 0.309117
deltaT = 0.333333
Time = 11

diagonal:  Solving for rho, Initial residual = 0, Final residual = 0, No Iterations 0
PIMPLE: iteration 1
DICPCG:  Solving for p_rgh, Initial residual = 0.00485591, Final residual = 4.62156e-05, No Iterations 105
diagonal:  Solving for rho, Initial residual = 0, Final residual = 0, No Iterations 0
time step continuity errors : sum local = 3.81765e-08, global = 1.99826e-14, cumulative = 1.19952e-12
DICPCG:  Solving for p_rgh, Initial residual = 0.00213053, Final residual = 9.96557e-08, No Iterations 295
diagonal:  Solving for rho, Initial residual = 0, Final residual = 0, No Iterations 0
time step continuity errors : sum local = 4.36775e-08, global = 2.74183e-14, cumulative = 1.22694e-12
ExecutionTime = 118.79 s  ClockTime = 131 s

Courant Number mean: 0.0138278 max: 0.305766
deltaT = 0.333333
Time = 11.3333

diagonal:  Solving for rho, Initial residual = 0, Final residual = 0, No Iterations 0
PIMPLE: iteration 1
DICPCG:  Solving for p_rgh, Initial residual = 0.00481431, Final residual = 4.6395e-05, No Iterations 104
diagonal:  Solving for rho, Initial residual = 0, Final residual = 0, No Iterations 0
time step continuity errors : sum local = 3.82196e-08, global = 9.91465e-16, cumulative = 1.22793e-12
DICPCG:  Solving for p_rgh, Initial residual = 0.00211528, Final residual = 8.81083e-08, No Iterations 299
diagonal:  Solving for rho, Initial residual = 0, Final residual = 0, No Iterations 0
time step continuity errors : sum local = 4.38211e-08, global = -9.90255e-15, cumulative = 1.21803e-12
ExecutionTime = 120.04 s  ClockTime = 132 s

Courant Number mean: 0.0136364 max: 0.302421
deltaT = 0.333333
Time = 11.6667

diagonal:  Solving for rho, Initial residual = 0, Final residual = 0, No Iterations 0
PIMPLE: iteration 1
DICPCG:  Solving for p_rgh, Initial residual = 0.00474827, Final residual = 4.65802e-05, No Iterations 104
diagonal:  Solving for rho, Initial residual = 0, Final residual = 0, No Iterations 0
time step continuity errors : sum local = 3.82478e-08, global = 1.52345e-15, cumulative = 1.21955e-12
DICPCG:  Solving for p_rgh, Initial residual = 0.00208872, Final residual = 9.12543e-08, No Iterations 300
diagonal:  Solving for rho, Initial residual = 0, Final residual = 0, No Iterations 0
time step continuity errors : sum local = 4.30362e-08, global = 4.1923e-14, cumulative = 1.26148e-12
ExecutionTime = 121.32 s  ClockTime = 133 s

Courant Number mean: 0.0134479 max: 0.299078
deltaT = 0.333333
Time = 12

diagonal:  Solving for rho, Initial residual = 0, Final residual = 0, No Iterations 0
PIMPLE: iteration 1
DICPCG:  Solving for p_rgh, Initial residual = 0.00470332, Final residual = 4.65036e-05, No Iterations 101
diagonal:  Solving for rho, Initial residual = 0, Final residual = 0, No Iterations 0
time step continuity errors : sum local = 3.72439e-08, global = -3.43098e-14, cumulative = 1.22717e-12
DICPCG:  Solving for p_rgh, Initial residual = 0.0020704, Final residual = 9.05902e-08, No Iterations 301
diagonal:  Solving for rho, Initial residual = 0, Final residual = 0, No Iterations 0
time step continuity errors : sum local = 4.32697e-08, global = -7.00791e-15, cumulative = 1.22016e-12
ExecutionTime = 123.15 s  ClockTime = 136 s

Courant Number mean: 0.0132623 max: 0.29575
deltaT = 0.333333
Time = 12.3333

diagonal:  Solving for rho, Initial residual = 0, Final residual = 0, No Iterations 0
PIMPLE: iteration 1
DICPCG:  Solving for p_rgh, Initial residual = 0.00467266, Final residual = 4.54399e-05, No Iterations 99
diagonal:  Solving for rho, Initial residual = 0, Final residual = 0, No Iterations 0
time step continuity errors : sum local = 3.67661e-08, global = -3.94179e-14, cumulative = 1.18074e-12
DICPCG:  Solving for p_rgh, Initial residual = 0.00205225, Final residual = 9.55897e-08, No Iterations 301
diagonal:  Solving for rho, Initial residual = 0, Final residual = 0, No Iterations 0
time step continuity errors : sum local = 4.38734e-08, global = -1.1239e-14, cumulative = 1.1695e-12
ExecutionTime = 124.43 s  ClockTime = 137 s

Courant Number mean: 0.0130793 max: 0.292455
deltaT = 0.333333
Time = 12.6667

diagonal:  Solving for rho, Initial residual = 0, Final residual = 0, No Iterations 0
PIMPLE: iteration 1
DICPCG:  Solving for p_rgh, Initial residual = 0.00462085, Final residual = 4.41058e-05, No Iterations 99
diagonal:  Solving for rho, Initial residual = 0, Final residual = 0, No Iterations 0
time step continuity errors : sum local = 3.57637e-08, global = -1.12157e-14, cumulative = 1.15829e-12
DICPCG:  Solving for p_rgh, Initial residual = 0.0020213, Final residual = 9.81233e-08, No Iterations 301
diagonal:  Solving for rho, Initial residual = 0, Final residual = 0, No Iterations 0
time step continuity errors : sum local = 4.41245e-08, global = -4.04519e-14, cumulative = 1.11783e-12
ExecutionTime = 125.65 s  ClockTime = 138 s

Courant Number mean: 0.0128988 max: 0.289424
deltaT = 0.333333
Time = 13

diagonal:  Solving for rho, Initial residual = 0, Final residual = 0, No Iterations 0
PIMPLE: iteration 1
DICPCG:  Solving for p_rgh, Initial residual = 0.00455022, Final residual = 4.24509e-05, No Iterations 99
diagonal:  Solving for rho, Initial residual = 0, Final residual = 0, No Iterations 0
time step continuity errors : sum local = 3.55094e-08, global = 1.09456e-14, cumulative = 1.12878e-12
DICPCG:  Solving for p_rgh, Initial residual = 0.00199385, Final residual = 9.93871e-08, No Iterations 301
diagonal:  Solving for rho, Initial residual = 0, Final residual = 0, No Iterations 0
time step continuity errors : sum local = 4.31638e-08, global = 2.8436e-14, cumulative = 1.15722e-12
ExecutionTime = 127.5 s  ClockTime = 141 s

Courant Number mean: 0.0127206 max: 0.286436
deltaT = 0.333333
Time = 13.3333

diagonal:  Solving for rho, Initial residual = 0, Final residual = 0, No Iterations 0
PIMPLE: iteration 1
DICPCG:  Solving for p_rgh, Initial residual = 0.00446899, Final residual = 4.42495e-05, No Iterations 98
diagonal:  Solving for rho, Initial residual = 0, Final residual = 0, No Iterations 0
time step continuity errors : sum local = 3.54552e-08, global = -1.14503e-14, cumulative = 1.14577e-12
[...]
DICPCG:  Solving for p_rgh, Initial residual = 0.000331993, Final residual = 9.63339e-08, No Iterations 289
diagonal:  Solving for rho, Initial residual = 0, Final residual = 0, No Iterations 0
time step continuity errors : sum local = 6.06517e-08, global = -1.29596e-14, cumulative = 1.39877e-12
ExecutionTime = 361.05 s  ClockTime = 430 s

Courant Number mean: 0.00525124 max: 0.0883409
deltaT = 0.5
Time = 88.5

diagonal:  Solving for rho, Initial residual = 0, Final residual = 0, No Iterations 0
PIMPLE: iteration 1
DICPCG:  Solving for p_rgh, Initial residual = 0.000420669, Final residual = 3.94644e-06, No Iterations 198
diagonal:  Solving for rho, Initial residual = 0, Final residual = 0, No Iterations 0
time step continuity errors : sum local = 5.34145e-08, global = -5.38818e-14, cumulative = 1.34489e-12
DICPCG:  Solving for p_rgh, Initial residual = 0.000337612, Final residual = 8.16408e-08, No Iterations 290
diagonal:  Solving for rho, Initial residual = 0, Final residual = 0, No Iterations 0
time step continuity errors : sum local = 6.07244e-08, global = -7.70294e-14, cumulative = 1.26786e-12
ExecutionTime = 362.48 s  ClockTime = 431 s

Courant Number mean: 0.00523344 max: 0.0874875
deltaT = 0.5
Time = 89

diagonal:  Solving for rho, Initial residual = 0, Final residual = 0, No Iterations 0
PIMPLE: iteration 1
DICPCG:  Solving for p_rgh, Initial residual = 0.000418841, Final residual = 4.12122e-06, No Iterations 178
diagonal:  Solving for rho, Initial residual = 0, Final residual = 0, No Iterations 0
time step continuity errors : sum local = 5.23393e-08, global = 3.47818e-14, cumulative = 1.30264e-12
DICPCG:  Solving for p_rgh, Initial residual = 0.000333889, Final residual = 9.15744e-08, No Iterations 289
diagonal:  Solving for rho, Initial residual = 0, Final residual = 0, No Iterations 0
time step continuity errors : sum local = 6.06607e-08, global = 2.54767e-14, cumulative = 1.32812e-12
ExecutionTime = 364.45 s  ClockTime = 434 s

Courant Number mean: 0.00521579 max: 0.0866445
deltaT = 0.5
Time = 89.5

diagonal:  Solving for rho, Initial residual = 0, Final residual = 0, No Iterations 0
PIMPLE: iteration 1
DICPCG:  Solving for p_rgh, Initial residual = 0.00041661, Final residual = 4.06829e-06, No Iterations 204
diagonal:  Solving for rho, Initial residual = 0, Final residual = 0, No Iterations 0
time step continuity errors : sum local = 5.44514e-08, global = 3.75468e-14, cumulative = 1.36566e-12
DICPCG:  Solving for p_rgh, Initial residual = 0.000338114, Final residual = 8.91848e-08, No Iterations 289
diagonal:  Solving for rho, Initial residual = 0, Final residual = 0, No Iterations 0
time step continuity errors : sum local = 6.01795e-08, global = 3.73193e-14, cumulative = 1.40298e-12
ExecutionTime = 365.86 s  ClockTime = 435 s

Courant Number mean: 0.00519832 max: 0.085808
deltaT = 0.5
Time = 90

diagonal:  Solving for rho, Initial residual = 0, Final residual = 0, No Iterations 0
PIMPLE: iteration 1
DICPCG:  Solving for p_rgh, Initial residual = 0.000411866, Final residual = 3.96713e-06, No Iterations 205
diagonal:  Solving for rho, Initial residual = 0, Final residual = 0, No Iterations 0
time step continuity errors : sum local = 5.52429e-08, global = -3.30769e-14, cumulative = 1.36991e-12
DICPCG:  Solving for p_rgh, Initial residual = 0.000339814, Final residual = 9.68455e-08, No Iterations 289
diagonal:  Solving for rho, Initial residual = 0, Final residual = 0, No Iterations 0
time step continuity errors : sum local = 6.11775e-08, global = -2.35231e-15, cumulative = 1.36755e-12
ExecutionTime = 367.9 s  ClockTime = 438 s

Courant Number mean: 0.00518101 max: 0.0849804
deltaT = 0.5
Time = 90.5

diagonal:  Solving for rho, Initial residual = 0, Final residual = 0, No Iterations 0
PIMPLE: iteration 1
DICPCG:  Solving for p_rgh, Initial residual = 0.000411262, Final residual = 3.96094e-06, No Iterations 186
diagonal:  Solving for rho, Initial residual = 0, Final residual = 0, No Iterations 0
time step continuity errors : sum local = 5.03393e-08, global = 2.75399e-14, cumulative = 1.39509e-12
DICPCG:  Solving for p_rgh, Initial residual = 0.000323607, Final residual = 9.36725e-08, No Iterations 289
diagonal:  Solving for rho, Initial residual = 0, Final residual = 0, No Iterations 0
time step continuity errors : sum local = 6.14243e-08, global = -1.3106e-14, cumulative = 1.38199e-12
ExecutionTime = 369.31 s  ClockTime = 439 s

Courant Number mean: 0.00516386 max: 0.0841623
deltaT = 0.5
Time = 91

diagonal:  Solving for rho, Initial residual = 0, Final residual = 0, No Iterations 0
PIMPLE: iteration 1
DICPCG:  Solving for p_rgh, Initial residual = 0.000411668, Final residual = 3.87942e-06, No Iterations 186
diagonal:  Solving for rho, Initial residual = 0, Final residual = 0, No Iterations 0
time step continuity errors : sum local = 5.26065e-08, global = -5.39926e-15, cumulative = 1.37659e-12
DICPCG:  Solving for p_rgh, Initial residual = 0.000328057, Final residual = 8.84363e-08, No Iterations 289
diagonal:  Solving for rho, Initial residual = 0, Final residual = 0, No Iterations 0
time step continuity errors : sum local = 6.0854e-08, global = 3.17957e-14, cumulative = 1.40838e-12
ExecutionTime = 371.36 s  ClockTime = 442 s

Courant Number mean: 0.00514686 max: 0.0833522
deltaT = 0.5
Time = 91.5

diagonal:  Solving for rho, Initial residual = 0, Final residual = 0, No Iterations 0
PIMPLE: iteration 1
DICPCG:  Solving for p_rgh, Initial residual = 0.000406325, Final residual = 4.04031e-06, No Iterations 186
diagonal:  Solving for rho, Initial residual = 0, Final residual = 0, No Iterations 0
time step continuity errors : sum local = 5.12296e-08, global = -7.70661e-14, cumulative = 1.33132e-12
DICPCG:  Solving for p_rgh, Initial residual = 0.000324171, Final residual = 8.34542e-08, No Iterations 289
diagonal:  Solving for rho, Initial residual = 0, Final residual = 0, No Iterations 0
time step continuity errors : sum local = 5.89022e-08, global = -1.59337e-14, cumulative = 1.31538e-12
ExecutionTime = 372.81 s  ClockTime = 443 s

Courant Number mean: 0.00513002 max: 0.0825522
deltaT = 0.5
Time = 92

diagonal:  Solving for rho, Initial residual = 0, Final residual = 0, No Iterations 0
PIMPLE: iteration 1
DICPCG:  Solving for p_rgh, Initial residual = 0.000399281, Final residual = 3.91616e-06, No Iterations 201
diagonal:  Solving for rho, Initial residual = 0, Final residual = 0, No Iterations 0
time step continuity errors : sum local = 5.40858e-08, global = -9.44329e-15, cumulative = 1.30594e-12
DICPCG:  Solving for p_rgh, Initial residual = 0.000329499, Final residual = 9.3075e-08, No Iterations 289
diagonal:  Solving for rho, Initial residual = 0, Final residual = 0, No Iterations 0
time step continuity errors : sum local = 5.99215e-08, global = -1.14081e-14, cumulative = 1.29453e-12
ExecutionTime = 374.95 s  ClockTime = 446 s

Courant Number mean: 0.00511334 max: 0.0817586
deltaT = 0.5
Time = 92.5

diagonal:  Solving for rho, Initial residual = 0, Final residual = 0, No Iterations 0
PIMPLE: iteration 1
DICPCG:  Solving for p_rgh, Initial residual = 0.00040026, Final residual = 3.86542e-06, No Iterations 200
diagonal:  Solving for rho, Initial residual = 0, Final residual = 0, No Iterations 0
time step continuity errors : sum local = 5.43093e-08, global = -3.09001e-14, cumulative = 1.26363e-12
DICPCG:  Solving for p_rgh, Initial residual = 0.000329045, Final residual = 9.10495e-08, No Iterations 289
diagonal:  Solving for rho, Initial residual = 0, Final residual = 0, No Iterations 0
time step continuity errors : sum local = 6.04676e-08, global = 7.97208e-15, cumulative = 1.2716e-12
ExecutionTime = 376.39 s  ClockTime = 448 s

Courant Number mean: 0.0050968 max: 0.0809731
deltaT = 0.5
Time = 93

diagonal:  Solving for rho, Initial residual = 0, Final residual = 0, No Iterations 0
PIMPLE: iteration 1
DICPCG:  Solving for p_rgh, Initial residual = 0.000397809, Final residual = 3.96858e-06, No Iterations 193
diagonal:  Solving for rho, Initial residual = 0, Final residual = 0, No Iterations 0
time step continuity errors : sum local = 5.26417e-08, global = 2.27637e-14, cumulative = 1.29437e-12
DICPCG:  Solving for p_rgh, Initial residual = 0.00032292, Final residual = 9.14443e-08, No Iterations 289
diagonal:  Solving for rho, Initial residual = 0, Final residual = 0, No Iterations 0
time step continuity errors : sum local = 5.93282e-08, global = 6.37591e-15, cumulative = 1.30074e-12
ExecutionTime = 378.37 s  ClockTime = 450 s

Courant Number mean: 0.00508041 max: 0.0801965
deltaT = 0.5
Time = 93.5

diagonal:  Solving for rho, Initial residual = 0, Final residual = 0, No Iterations 0
PIMPLE: iteration 1
DICPCG:  Solving for p_rgh, Initial residual = 0.000394635, Final residual = 3.91144e-06, No Iterations 188
diagonal:  Solving for rho, Initial residual = 0, Final residual = 0, No Iterations 0
time step continuity errors : sum local = 5.27115e-08, global = -6.24028e-15, cumulative = 1.2945e-12
DICPCG:  Solving for p_rgh, Initial residual = 0.000323463, Final residual = 9.47309e-08, No Iterations 289
diagonal:  Solving for rho, Initial residual = 0, Final residual = 0, No Iterations 0
time step continuity errors : sum local = 6.00948e-08, global = -6.35262e-14, cumulative = 1.23098e-12
ExecutionTime = 379.79 s  ClockTime = 452 s

Courant Number mean: 0.00506417 max: 0.0794272
deltaT = 0.5
Time = 94

diagonal:  Solving for rho, Initial residual = 0, Final residual = 0, No Iterations 0
PIMPLE: iteration 1
DICPCG:  Solving for p_rgh, Initial residual = 0.000393685, Final residual = 3.927e-06, No Iterations 187
diagonal:  Solving for rho, Initial residual = 0, Final residual = 0, No Iterations 0
time step continuity errors : sum local = 5.07781e-08, global = 1.11777e-13, cumulative = 1.34275e-12
DICPCG:  Solving for p_rgh, Initial residual = 0.000314589, Final residual = 9.91003e-08, No Iterations 288
diagonal:  Solving for rho, Initial residual = 0, Final residual = 0, No Iterations 0
time step continuity errors : sum local = 6.03418e-08, global = 3.94287e-14, cumulative = 1.38218e-12
ExecutionTime = 381.75 s  ClockTime = 454 s

Courant Number mean: 0.00504803 max: 0.0786669
deltaT = 0.5
Time = 94.5

diagonal:  Solving for rho, Initial residual = 0, Final residual = 0, No Iterations 0
PIMPLE: iteration 1
DICPCG:  Solving for p_rgh, Initial residual = 0.000390964, Final residual = 3.86763e-06, No Iterations 201
diagonal:  Solving for rho, Initial residual = 0, Final residual = 0, No Iterations 0
time step continuity errors : sum local = 5.37498e-08, global = -1.13437e-14, cumulative = 1.37084e-12
DICPCG:  Solving for p_rgh, Initial residual = 0.000323578, Final residual = 8.90642e-08, No Iterations 289
diagonal:  Solving for rho, Initial residual = 0, Final residual = 0, No Iterations 0
time step continuity errors : sum local = 5.96752e-08, global = 5.24858e-14, cumulative = 1.42333e-12
ExecutionTime = 383.17 s  ClockTime = 456 s

Courant Number mean: 0.00503202 max: 0.0779148
deltaT = 0.5
Time = 95

diagonal:  Solving for rho, Initial residual = 0, Final residual = 0, No Iterations 0
PIMPLE: iteration 1
DICPCG:  Solving for p_rgh, Initial residual = 0.000388246, Final residual = 3.82944e-06, No Iterations 203
diagonal:  Solving for rho, Initial residual = 0, Final residual = 0, No Iterations 0
time step continuity errors : sum local = 5.42207e-08, global = 7.55477e-15, cumulative = 1.43088e-12
DICPCG:  Solving for p_rgh, Initial residual = 0.000323442, Final residual = 8.74827e-08, No Iterations 289
diagonal:  Solving for rho, Initial residual = 0, Final residual = 0, No Iterations 0
time step continuity errors : sum local = 5.92284e-08, global = -4.52919e-14, cumulative = 1.38559e-12
ExecutionTime = 385.2 s  ClockTime = 458 s

Courant Number mean: 0.00501614 max: 0.07717
deltaT = 0.5
Time = 95.5

diagonal:  Solving for rho, Initial residual = 0, Final residual = 0, No Iterations 0
PIMPLE: iteration 1
DICPCG:  Solving for p_rgh, Initial residual = 0.000384089, Final residual = 3.64166e-06, No Iterations 183
diagonal:  Solving for rho, Initial residual = 0, Final residual = 0, No Iterations 0
time step continuity errors : sum local = 5.11692e-08, global = 2.07709e-14, cumulative = 1.40636e-12
DICPCG:  Solving for p_rgh, Initial residual = 0.000312632, Final residual = 9.49513e-08, No Iterations 288
diagonal:  Solving for rho, Initial residual = 0, Final residual = 0, No Iterations 0
time step continuity errors : sum local = 5.97476e-08, global = -1.43779e-14, cumulative = 1.39198e-12
ExecutionTime = 386.62 s  ClockTime = 460 s

Courant Number mean: 0.00500037 max: 0.076434
deltaT = 0.5
Time = 96

diagonal:  Solving for rho, Initial residual = 0, Final residual = 0, No Iterations 0
PIMPLE: iteration 1
DICPCG:  Solving for p_rgh, Initial residual = 0.00038353, Final residual = 3.71717e-06, No Iterations 204
diagonal:  Solving for rho, Initial residual = 0, Final residual = 0, No Iterations 0
time step continuity errors : sum local = 5.57211e-08, global = 4.16453e-14, cumulative = 1.43363e-12
DICPCG:  Solving for p_rgh, Initial residual = 0.000325226, Final residual = 9.599e-08, No Iterations 275
diagonal:  Solving for rho, Initial residual = 0, Final residual = 0, No Iterations 0
time step continuity errors : sum local = 5.93164e-08, global = 5.08268e-15, cumulative = 1.43871e-12
ExecutionTime = 388.69 s  ClockTime = 463 s

Courant Number mean: 0.00498474 max: 0.0757037
deltaT = 0.5
Time = 96.5

diagonal:  Solving for rho, Initial residual = 0, Final residual = 0, No Iterations 0
PIMPLE: iteration 1
DICPCG:  Solving for p_rgh, Initial residual = 0.000381731, Final residual = 3.66913e-06, No Iterations 208
diagonal:  Solving for rho, Initial residual = 0, Final residual = 0, No Iterations 0
time step continuity errors : sum local = 5.45854e-08, global = 1.3256e-14, cumulative = 1.45197e-12
DICPCG:  Solving for p_rgh, Initial residual = 0.000320954, Final residual = 9.71287e-08, No Iterations 286
diagonal:  Solving for rho, Initial residual = 0, Final residual = 0, No Iterations 0
time step continuity errors : sum local = 5.82522e-08, global = 4.57632e-14, cumulative = 1.49773e-12
ExecutionTime = 390.19 s  ClockTime = 464 s

Courant Number mean: 0.00496922 max: 0.0749824
deltaT = 0.5
Time = 97

diagonal:  Solving for rho, Initial residual = 0, Final residual = 0, No Iterations 0
PIMPLE: iteration 1
DICPCG:  Solving for p_rgh, Initial residual = 0.000377201, Final residual = 3.72958e-06, No Iterations 201
diagonal:  Solving for rho, Initial residual = 0, Final residual = 0, No Iterations 0
time step continuity errors : sum local = 5.45694e-08, global = -2.90865e-14, cumulative = 1.46864e-12
DICPCG:  Solving for p_rgh, Initial residual = 0.000319274, Final residual = 9.62833e-08, No Iterations 254
diagonal:  Solving for rho, Initial residual = 0, Final residual = 0, No Iterations 0
time step continuity errors : sum local = 5.65907e-08, global = -9.43275e-14, cumulative = 1.37431e-12
ExecutionTime = 392.18 s  ClockTime = 467 s

Courant Number mean: 0.0049538 max: 0.0742675
deltaT = 0.5
Time = 97.5

diagonal:  Solving for rho, Initial residual = 0, Final residual = 0, No Iterations 0
PIMPLE: iteration 1
DICPCG:  Solving for p_rgh, Initial residual = 0.000368572, Final residual = 3.65284e-06, No Iterations 203
diagonal:  Solving for rho, Initial residual = 0, Final residual = 0, No Iterations 0
time step continuity errors : sum local = 5.22703e-08, global = 6.25307e-14, cumulative = 1.43684e-12
DICPCG:  Solving for p_rgh, Initial residual = 0.000310314, Final residual = 8.84678e-08, No Iterations 267
diagonal:  Solving for rho, Initial residual = 0, Final residual = 0, No Iterations 0
time step continuity errors : sum local = 5.81937e-08, global = 7.92243e-14, cumulative = 1.51607e-12
ExecutionTime = 393.61 s  ClockTime = 468 s

Courant Number mean: 0.0049385 max: 0.0735619
deltaT = 0.5
Time = 98

diagonal:  Solving for rho, Initial residual = 0, Final residual = 0, No Iterations 0
PIMPLE: iteration 1
DICPCG:  Solving for p_rgh, Initial residual = 0.00037269, Final residual = 3.66477e-06, No Iterations 194
diagonal:  Solving for rho, Initial residual = 0, Final residual = 0, No Iterations 0
time step continuity errors : sum local = 5.40126e-08, global = -1.8906e-14, cumulative = 1.49716e-12
DICPCG:  Solving for p_rgh, Initial residual = 0.000315959, Final residual = 9.15133e-08, No Iterations 267
diagonal:  Solving for rho, Initial residual = 0, Final residual = 0, No Iterations 0
time step continuity errors : sum local = 5.85755e-08, global = 7.2381e-15, cumulative = 1.5044e-12
ExecutionTime = 395.58 s  ClockTime = 471 s

Courant Number mean: 0.00492332 max: 0.0728613
deltaT = 0.5
Time = 98.5

diagonal:  Solving for rho, Initial residual = 0, Final residual = 0, No Iterations 0
PIMPLE: iteration 1
DICPCG:  Solving for p_rgh, Initial residual = 0.000372226, Final residual = 3.68623e-06, No Iterations 106
diagonal:  Solving for rho, Initial residual = 0, Final residual = 0, No Iterations 0
time step continuity errors : sum local = 3.83276e-08, global = -1.90568e-14, cumulative = 1.48534e-12
DICPCG:  Solving for p_rgh, Initial residual = 0.000266867, Final residual = 9.58545e-08, No Iterations 288
diagonal:  Solving for rho, Initial residual = 0, Final residual = 0, No Iterations 0
time step continuity errors : sum local = 5.77982e-08, global = -5.25772e-15, cumulative = 1.48009e-12
ExecutionTime = 396.84 s  ClockTime = 472 s

Courant Number mean: 0.00490824 max: 0.0721698
deltaT = 0.5
Time = 99

diagonal:  Solving for rho, Initial residual = 0, Final residual = 0, No Iterations 0
PIMPLE: iteration 1
DICPCG:  Solving for p_rgh, Initial residual = 0.000368867, Final residual = 3.4477e-06, No Iterations 186
diagonal:  Solving for rho, Initial residual = 0, Final residual = 0, No Iterations 0
time step continuity errors : sum local = 5.28211e-08, global = 1.54792e-14, cumulative = 1.49557e-12
DICPCG:  Solving for p_rgh, Initial residual = 0.000309279, Final residual = 9.99477e-08, No Iterations 287
diagonal:  Solving for rho, Initial residual = 0, Final residual = 0, No Iterations 0
time step continuity errors : sum local = 5.94999e-08, global = -2.34253e-14, cumulative = 1.47214e-12
ExecutionTime = 398.84 s  ClockTime = 475 s

Courant Number mean: 0.00489327 max: 0.0714841
deltaT = 0.5
Time = 99.5

diagonal:  Solving for rho, Initial residual = 0, Final residual = 0, No Iterations 0
PIMPLE: iteration 1
DICPCG:  Solving for p_rgh, Initial residual = 0.000370309, Final residual = 3.48669e-06, No Iterations 202
diagonal:  Solving for rho, Initial residual = 0, Final residual = 0, No Iterations 0
time step continuity errors : sum local = 5.44932e-08, global = 4.07625e-15, cumulative = 1.47622e-12
DICPCG:  Solving for p_rgh, Initial residual = 0.000314976, Final residual = 9.68673e-08, No Iterations 261
diagonal:  Solving for rho, Initial residual = 0, Final residual = 0, No Iterations 0
time step continuity errors : sum local = 5.86344e-08, global = -2.47702e-14, cumulative = 1.45145e-12
ExecutionTime = 400.2 s  ClockTime = 476 s

Courant Number mean: 0.00487843 max: 0.0708056
deltaT = 0.5
Time = 100

diagonal:  Solving for rho, Initial residual = 0, Final residual = 0, No Iterations 0
PIMPLE: iteration 1
DICPCG:  Solving for p_rgh, Initial residual = 0.000367509, Final residual = 3.45627e-06, No Iterations 204
diagonal:  Solving for rho, Initial residual = 0, Final residual = 0, No Iterations 0
time step continuity errors : sum local = 5.43684e-08, global = 4.8163e-14, cumulative = 1.49961e-12
DICPCG:  Solving for p_rgh, Initial residual = 0.00031171, Final residual = 9.24542e-08, No Iterations 287
diagonal:  Solving for rho, Initial residual = 0, Final residual = 0, No Iterations 0
time step continuity errors : sum local = 5.90197e-08, global = 7.08801e-14, cumulative = 1.57049e-12
ExecutionTime = 402.3 s  ClockTime = 479 s

End

