/*---------------------------------------------------------------------------*\
| =========                 |                                                 |
| \\      /  F ield         | OpenFOAM: The Open Source CFD Toolbox           |
|  \\    /   O peration     | Version:  v2012                                 |
|   \\  /    A nd           | Website:  www.openfoam.com                      |
|    \\/     M anipulation  |                                                 |
\*---------------------------------------------------------------------------*/
Build  : _7bdb509494-20201222 OPENFOAM=2012
Arch   : "LSB;label=32;scalar=64"
Exec   : blockMesh
Date   : Aug 23 2021
Time   : 18:51:54
Host   : DESKTOP-DOBVM7I
PID    : 7456
I/O    : uncollated
Case   : /mnt/c/Users/TSam/GitHub_OpenFOAM/OpenFoam_heatTrf/chtMultiregionFoam/snappyMultiRegionHeater
nProcs : 1
trapFpe: Floating point exception trapping enabled (FOAM_SIGFPE).
fileModificationChecking : Monitoring run-time modified files using timeStampMaster (fileModificationSkew 5, maxFileModificationPolls 20)
allowSystemOperations : Allowing user-supplied system call operations

// * * * * * * * * * * * * * * * * * * * * * * * * * * * * * * * * * * * * * //
Create time

Creating block mesh from "system/blockMeshDict"
Creating block edges
No non-planar block faces defined
Creating topology blocks
Creating topology patches

Creating block mesh topology

Check topology

	Basic statistics
		Number of internal faces : 0
		Number of boundary faces : 6
		Number of defined boundary faces : 6
		Number of undefined boundary faces : 0
	Checking patch -> block consistency

Creating block offsets
Creating merge list (topological search)...

Creating polyMesh from blockMesh
Creating patches
Creating cells
Creating points with scale 1
    Block 0 cell size :
        i : 0.006666667 .. 0.006666667
        j : 0.008 .. 0.008
        k : 0.01 .. 0.01


There are no merge patch pairs

Writing polyMesh with 0 cellZones
----------------
Mesh Information
----------------
  boundingBox: (-0.1 -0.04 -0.05) (0.1 0.04 0.05)
  nPoints: 3751
  nCells: 3000
  nFaces: 9700
  nInternalFaces: 8300
----------------
Patches
----------------
  patch 0 (start: 8300 size: 300) name: maxY
  patch 1 (start: 8600 size: 100) name: minX
  patch 2 (start: 8700 size: 100) name: maxX
  patch 3 (start: 8800 size: 300) name: minY
  patch 4 (start: 9100 size: 300) name: minZ
  patch 5 (start: 9400 size: 300) name: maxZ

End

