/*---------------------------------------------------------------------------*\
| =========                 |                                                 |
| \\      /  F ield         | OpenFOAM: The Open Source CFD Toolbox           |
|  \\    /   O peration     | Version:  v2012                                 |
|   \\  /    A nd           | Website:  www.openfoam.com                      |
|    \\/     M anipulation  |                                                 |
\*---------------------------------------------------------------------------*/
Build  : _7bdb509494-20201222 OPENFOAM=2012
Arch   : "LSB;label=32;scalar=64"
Exec   : buoyantPimpleFoam
Date   : Aug 14 2021
Time   : 00:45:57
Host   : DESKTOP-DOBVM7I
PID    : 2220
I/O    : uncollated
Case   : /mnt/c/Users/TSam/GitHub_OpenFOAM/OpenFoam_heatTrf/buoyantPimpleFoam_timevaryingBC/timevaryingCavityFoam
nProcs : 1
trapFpe: Floating point exception trapping enabled (FOAM_SIGFPE).
fileModificationChecking : Monitoring run-time modified files using timeStampMaster (fileModificationSkew 5, maxFileModificationPolls 20)
allowSystemOperations : Allowing user-supplied system call operations

// * * * * * * * * * * * * * * * * * * * * * * * * * * * * * * * * * * * * * //
Create time

Create mesh for time = 0


PIMPLE: Operating solver in PISO mode

Reading thermophysical properties

Selecting thermodynamics package 
{
    type            heRhoThermo;
    mixture         pureMixture;
    transport       const;
    thermo          hConst;
    equationOfState perfectGas;
    specie          specie;
    energy          sensibleEnthalpy;
}

Reading field U

Reading/calculating face flux field phi

Creating turbulence model

Selecting turbulence model type RAS
Selecting RAS turbulence model kOmegaSST
Selecting patchDistMethod meshWave
RAS
{
    RASModel        kOmegaSST;
    turbulence      on;
    printCoeffs     on;
    alphaK1         0.85;
    alphaK2         1;
    alphaOmega1     0.5;
    alphaOmega2     0.856;
    gamma1          0.555556;
    gamma2          0.44;
    beta1           0.075;
    beta2           0.0828;
    betaStar        0.09;
    a1              0.31;
    b1              1;
    c1              10;
    F3              false;
    decayControl    false;
    kInf            0;
    omegaInf        0;
}


Reading g

Reading hRef
Calculating field g.h

Reading field p_rgh

Creating field dpdt

Creating field kinetic energy K

No MRF models present

Radiation model not active: radiationProperties not found
Selecting radiationModel none
No finite volume options present
Courant Number mean: 0 max: 0

Starting time loop

Courant Number mean: 0 max: 0
deltaT = 0.0120482
Time = 0.0120482

diagonal:  Solving for rho, Initial residual = 0, Final residual = 0, No Iterations 0
PIMPLE: iteration 1
DILUPBiCGStab:  Solving for h, Initial residual = 1, Final residual = 2.79508e-09, No Iterations 5
DICPCG:  Solving for p_rgh, Initial residual = 0.93201, Final residual = 0.00867099, No Iterations 137
diagonal:  Solving for rho, Initial residual = 0, Final residual = 0, No Iterations 0
time step continuity errors : sum local = 0.000607055, global = 5.49209e-13, cumulative = 5.49209e-13
DICPCG:  Solving for p_rgh, Initial residual = 0.0996779, Final residual = 9.57177e-08, No Iterations 255
diagonal:  Solving for rho, Initial residual = 0, Final residual = 0, No Iterations 0
time step continuity errors : sum local = 0.000882579, global = 5.43593e-13, cumulative = 1.0928e-12
DILUPBiCGStab:  Solving for omega, Initial residual = 0.186301, Final residual = 1.30372e-09, No Iterations 3
DILUPBiCGStab:  Solving for k, Initial residual = 1, Final residual = 6.07517e-09, No Iterations 8
bounding k, min: -0.0353456 max: 0.0915652 average: 0.000360144
ExecutionTime = 2.61 s  ClockTime = 3 s

Courant Number mean: 0.0700088 max: 29.2486
deltaT = 0.000205952
Time = 0.0122541

diagonal:  Solving for rho, Initial residual = 0, Final residual = 0, No Iterations 0
PIMPLE: iteration 1
DILUPBiCGStab:  Solving for h, Initial residual = 0.00808203, Final residual = 6.32527e-11, No Iterations 1
DICPCG:  Solving for p_rgh, Initial residual = 0.205154, Final residual = 0.00151026, No Iterations 16
diagonal:  Solving for rho, Initial residual = 0, Final residual = 0, No Iterations 0
time step continuity errors : sum local = 1.43839e-05, global = -1.16087e-14, cumulative = 1.08119e-12
DICPCG:  Solving for p_rgh, Initial residual = 0.0431538, Final residual = 9.22854e-08, No Iterations 50
diagonal:  Solving for rho, Initial residual = 0, Final residual = 0, No Iterations 0
time step continuity errors : sum local = 1.26257e-05, global = -3.0192e-15, cumulative = 1.07817e-12
DILUPBiCGStab:  Solving for omega, Initial residual = 0.00197132, Final residual = 7.40792e-10, No Iterations 1
DILUPBiCGStab:  Solving for k, Initial residual = 0.0283358, Final residual = 5.00032e-09, No Iterations 2
bounding k, min: -0.0104406 max: 0.16214 average: 0.000361368
ExecutionTime = 3.14 s  ClockTime = 3 s

Courant Number mean: 0.00132115 max: 0.424636
deltaT = 0.00023019
Time = 0.0124843

diagonal:  Solving for rho, Initial residual = 0, Final residual = 0, No Iterations 0
PIMPLE: iteration 1
DILUPBiCGStab:  Solving for h, Initial residual = 0.0094671, Final residual = 2.04953e-10, No Iterations 1
DICPCG:  Solving for p_rgh, Initial residual = 0.32255, Final residual = 0.00309918, No Iterations 19
diagonal:  Solving for rho, Initial residual = 0, Final residual = 0, No Iterations 0
time step continuity errors : sum local = 1.17475e-05, global = -3.29849e-16, cumulative = 1.07784e-12
DICPCG:  Solving for p_rgh, Initial residual = 0.0287098, Final residual = 8.76208e-08, No Iterations 54
diagonal:  Solving for rho, Initial residual = 0, Final residual = 0, No Iterations 0
time step continuity errors : sum local = 1.02536e-05, global = 5.98358e-15, cumulative = 1.08383e-12
DILUPBiCGStab:  Solving for omega, Initial residual = 0.00215417, Final residual = 1.08685e-09, No Iterations 1
DILUPBiCGStab:  Solving for k, Initial residual = 0.0339268, Final residual = 1.42242e-09, No Iterations 2
bounding k, min: -0.0053078 max: 0.256918 average: 0.000361721
ExecutionTime = 3.71 s  ClockTime = 4 s

Courant Number mean: 0.00150951 max: 0.344442
deltaT = 0.000263619
Time = 0.012748

diagonal:  Solving for rho, Initial residual = 0, Final residual = 0, No Iterations 0
PIMPLE: iteration 1
DILUPBiCGStab:  Solving for h, Initial residual = 0.0107972, Final residual = 1.18821e-10, No Iterations 1
DICPCG:  Solving for p_rgh, Initial residual = 0.168371, Final residual = 0.0013671, No Iterations 23
diagonal:  Solving for rho, Initial residual = 0, Final residual = 0, No Iterations 0
time step continuity errors : sum local = 7.63184e-06, global = 5.40234e-15, cumulative = 1.08923e-12
DICPCG:  Solving for p_rgh, Initial residual = 0.0160613, Final residual = 9.87792e-08, No Iterations 58
diagonal:  Solving for rho, Initial residual = 0, Final residual = 0, No Iterations 0
time step continuity errors : sum local = 6.65555e-06, global = -2.59048e-15, cumulative = 1.08664e-12
DILUPBiCGStab:  Solving for omega, Initial residual = 0.00240798, Final residual = 1.62968e-09, No Iterations 1
DILUPBiCGStab:  Solving for k, Initial residual = 0.0330181, Final residual = 7.93646e-11, No Iterations 2
bounding k, min: -9.0043e-07 max: 0.344951 average: 0.00036225
ExecutionTime = 4.25 s  ClockTime = 4 s

Courant Number mean: 0.0017199 max: 0.221286
deltaT = 0.000316326
Time = 0.0130643

diagonal:  Solving for rho, Initial residual = 0, Final residual = 0, No Iterations 0
PIMPLE: iteration 1
DILUPBiCGStab:  Solving for h, Initial residual = 0.0126899, Final residual = 5.04246e-11, No Iterations 1
DICPCG:  Solving for p_rgh, Initial residual = 0.165871, Final residual = 0.00149461, No Iterations 27
diagonal:  Solving for rho, Initial residual = 0, Final residual = 0, No Iterations 0
time step continuity errors : sum local = 2.5619e-06, global = 4.89421e-15, cumulative = 1.09153e-12
DICPCG:  Solving for p_rgh, Initial residual = 0.00443502, Final residual = 8.5957e-08, No Iterations 61
diagonal:  Solving for rho, Initial residual = 0, Final residual = 0, No Iterations 0
time step continuity errors : sum local = 1.91315e-06, global = -8.45317e-17, cumulative = 1.09145e-12
DILUPBiCGStab:  Solving for omega, Initial residual = 0.00280984, Final residual = 2.71211e-09, No Iterations 1
DILUPBiCGStab:  Solving for k, Initial residual = 0.0205888, Final residual = 8.72829e-11, No Iterations 1
ExecutionTime = 4.92 s  ClockTime = 5 s

Courant Number mean: 0.00203098 max: 0.0583108
deltaT = 0.000379591
Time = 0.0134439

diagonal:  Solving for rho, Initial residual = 0, Final residual = 0, No Iterations 0
PIMPLE: iteration 1
DILUPBiCGStab:  Solving for h, Initial residual = 0.0147941, Final residual = 1.22726e-12, No Iterations 1
DICPCG:  Solving for p_rgh, Initial residual = 0.168876, Final residual = 0.00166451, No Iterations 31
diagonal:  Solving for rho, Initial residual = 0, Final residual = 0, No Iterations 0
time step continuity errors : sum local = 4.31985e-06, global = -8.71387e-15, cumulative = 1.08274e-12
DICPCG:  Solving for p_rgh, Initial residual = 0.00538603, Final residual = 9.49699e-08, No Iterations 76
diagonal:  Solving for rho, Initial residual = 0, Final residual = 0, No Iterations 0
time step continuity errors : sum local = 3.27088e-06, global = -1.43565e-14, cumulative = 1.06838e-12
DILUPBiCGStab:  Solving for omega, Initial residual = 0.00326333, Final residual = 4.46302e-09, No Iterations 1
DILUPBiCGStab:  Solving for k, Initial residual = 0.0326256, Final residual = 9.01195e-11, No Iterations 1
ExecutionTime = 5.54 s  ClockTime = 6 s

Courant Number mean: 0.00243405 max: 0.12237
deltaT = 0.000455474
Time = 0.0138993

diagonal:  Solving for rho, Initial residual = 0, Final residual = 0, No Iterations 0
PIMPLE: iteration 1
DILUPBiCGStab:  Solving for h, Initial residual = 0.017142, Final residual = 2.7566e-12, No Iterations 1
DICPCG:  Solving for p_rgh, Initial residual = 0.161597, Final residual = 0.00151004, No Iterations 39
diagonal:  Solving for rho, Initial residual = 0, Final residual = 0, No Iterations 0
time step continuity errors : sum local = 1.1035e-05, global = 1.3362e-14, cumulative = 1.08174e-12
DICPCG:  Solving for p_rgh, Initial residual = 0.00925189, Final residual = 9.38523e-08, No Iterations 95
diagonal:  Solving for rho, Initial residual = 0, Final residual = 0, No Iterations 0
time step continuity errors : sum local = 9.60799e-06, global = 8.11888e-15, cumulative = 1.08986e-12
DILUPBiCGStab:  Solving for omega, Initial residual = 0.003769, Final residual = 7.2842e-09, No Iterations 1
DILUPBiCGStab:  Solving for k, Initial residual = 0.0537422, Final residual = 3.61074e-11, No Iterations 2
ExecutionTime = 6.28 s  ClockTime = 6 s

Courant Number mean: 0.00298982 max: 0.351568
deltaT = 0.00052037
Time = 0.0144197

diagonal:  Solving for rho, Initial residual = 0, Final residual = 0, No Iterations 0
PIMPLE: iteration 1
DILUPBiCGStab:  Solving for h, Initial residual = 0.0188116, Final residual = 1.2499e-10, No Iterations 1
DICPCG:  Solving for p_rgh, Initial residual = 0.148246, Final residual = 0.00141879, No Iterations 41
diagonal:  Solving for rho, Initial residual = 0, Final residual = 0, No Iterations 0
time step continuity errors : sum local = 1.68447e-05, global = 2.26096e-15, cumulative = 1.09212e-12
DICPCG:  Solving for p_rgh, Initial residual = 0.0100642, Final residual = 9.01132e-08, No Iterations 108
diagonal:  Solving for rho, Initial residual = 0, Final residual = 0, No Iterations 0
time step continuity errors : sum local = 1.49072e-05, global = -7.72523e-16, cumulative = 1.09135e-12
DILUPBiCGStab:  Solving for omega, Initial residual = 0.00412287, Final residual = 9.87614e-09, No Iterations 1
DILUPBiCGStab:  Solving for k, Initial residual = 0.05803, Final residual = 6.91292e-10, No Iterations 2
ExecutionTime = 7.05 s  ClockTime = 7 s

Courant Number mean: 0.00337123 max: 0.541714
deltaT = 0.000480302
Time = 0.0149

diagonal:  Solving for rho, Initial residual = 0, Final residual = 0, No Iterations 0
PIMPLE: iteration 1
DILUPBiCGStab:  Solving for h, Initial residual = 0.0166425, Final residual = 3.62843e-10, No Iterations 1
DICPCG:  Solving for p_rgh, Initial residual = 0.134009, Final residual = 0.00126654, No Iterations 35
diagonal:  Solving for rho, Initial residual = 0, Final residual = 0, No Iterations 0
time step continuity errors : sum local = 1.49771e-05, global = 1.24736e-14, cumulative = 1.10382e-12
DICPCG:  Solving for p_rgh, Initial residual = 0.00923728, Final residual = 9.83984e-08, No Iterations 98
diagonal:  Solving for rho, Initial residual = 0, Final residual = 0, No Iterations 0
time step continuity errors : sum local = 1.32853e-05, global = 7.53181e-15, cumulative = 1.11135e-12
DILUPBiCGStab:  Solving for omega, Initial residual = 0.00364249, Final residual = 6.86168e-09, No Iterations 1
DILUPBiCGStab:  Solving for k, Initial residual = 0.0400965, Final residual = 2.68258e-10, No Iterations 2
ExecutionTime = 7.77 s  ClockTime = 8 s

Courant Number mean: 0.00295872 max: 0.485229
deltaT = 0.000495025
Time = 0.015395

diagonal:  Solving for rho, Initial residual = 0, Final residual = 0, No Iterations 0
PIMPLE: iteration 1
DILUPBiCGStab:  Solving for h, Initial residual = 0.0164896, Final residual = 3.28289e-10, No Iterations 1
DICPCG:  Solving for p_rgh, Initial residual = 0.119398, Final residual = 0.00113205, No Iterations 34
diagonal:  Solving for rho, Initial residual = 0, Final residual = 0, No Iterations 0
time step continuity errors : sum local = 1.16823e-05, global = -8.15785e-15, cumulative = 1.1032e-12
DICPCG:  Solving for p_rgh, Initial residual = 0.00635694, Final residual = 9.50377e-08, No Iterations 96
diagonal:  Solving for rho, Initial residual = 0, Final residual = 0, No Iterations 0
time step continuity errors : sum local = 1.01309e-05, global = 7.01102e-16, cumulative = 1.1039e-12
DILUPBiCGStab:  Solving for omega, Initial residual = 0.00360419, Final residual = 6.20114e-09, No Iterations 1
DILUPBiCGStab:  Solving for k, Initial residual = 0.0307068, Final residual = 3.50821e-11, No Iterations 2
ExecutionTime = 8.48 s  ClockTime = 9 s

Courant Number mean: 0.00279062 max: 0.37827
deltaT = 0.00056039
Time = 0.0159554

diagonal:  Solving for rho, Initial residual = 0, Final residual = 0, No Iterations 0
PIMPLE: iteration 1
DILUPBiCGStab:  Solving for h, Initial residual = 0.0179279, Final residual = 1.42828e-10, No Iterations 1
DICPCG:  Solving for p_rgh, Initial residual = 0.104718, Final residual = 0.00091929, No Iterations 41
diagonal:  Solving for rho, Initial residual = 0, Final residual = 0, No Iterations 0
time step continuity errors : sum local = 5.92901e-06, global = -1.52864e-14, cumulative = 1.08861e-12
DICPCG:  Solving for p_rgh, Initial residual = 0.00256133, Final residual = 8.96401e-08, No Iterations 97
diagonal:  Solving for rho, Initial residual = 0, Final residual = 0, No Iterations 0
time step continuity errors : sum local = 4.56807e-06, global = 4.02067e-15, cumulative = 1.09263e-12
DILUPBiCGStab:  Solving for omega, Initial residual = 0.00391052, Final residual = 6.5178e-09, No Iterations 1
DILUPBiCGStab:  Solving for k, Initial residual = 0.0278098, Final residual = 5.72426e-10, No Iterations 1
ExecutionTime = 9.21 s  ClockTime = 9 s

Courant Number mean: 0.00274464 max: 0.202786
deltaT = 0.000672621
Time = 0.0166281

diagonal:  Solving for rho, Initial residual = 0, Final residual = 0, No Iterations 0
PIMPLE: iteration 1
DILUPBiCGStab:  Solving for h, Initial residual = 0.0205783, Final residual = 1.33795e-11, No Iterations 1
DICPCG:  Solving for p_rgh, Initial residual = 0.0920181, Final residual = 0.000826774, No Iterations 49
diagonal:  Solving for rho, Initial residual = 0, Final residual = 0, No Iterations 0
time step continuity errors : sum local = 7.44498e-06, global = -2.04034e-14, cumulative = 1.07223e-12
DICPCG:  Solving for p_rgh, Initial residual = 0.00187274, Final residual = 9.55248e-08, No Iterations 120
diagonal:  Solving for rho, Initial residual = 0, Final residual = 0, No Iterations 0
time step continuity errors : sum local = 5.30125e-06, global = -1.04359e-14, cumulative = 1.06179e-12
DILUPBiCGStab:  Solving for omega, Initial residual = 0.00447424, Final residual = 6.30531e-09, No Iterations 1
DILUPBiCGStab:  Solving for k, Initial residual = 0.0295807, Final residual = 2.22038e-09, No Iterations 1
ExecutionTime = 10.03 s  ClockTime = 10 s

Courant Number mean: 0.0028073 max: 0.145031
deltaT = 0.000807366
Time = 0.0174354

diagonal:  Solving for rho, Initial residual = 0, Final residual = 0, No Iterations 0
PIMPLE: iteration 1
DILUPBiCGStab:  Solving for h, Initial residual = 0.023462, Final residual = 4.83945e-11, No Iterations 1
DICPCG:  Solving for p_rgh, Initial residual = 0.0857745, Final residual = 0.000848174, No Iterations 59
diagonal:  Solving for rho, Initial residual = 0, Final residual = 0, No Iterations 0
time step continuity errors : sum local = 2.2649e-05, global = -7.27138e-16, cumulative = 1.06107e-12
DICPCG:  Solving for p_rgh, Initial residual = 0.00353503, Final residual = 9.83223e-08, No Iterations 150
diagonal:  Solving for rho, Initial residual = 0, Final residual = 0, No Iterations 0
time step continuity errors : sum local = 1.92869e-05, global = -5.13828e-17, cumulative = 1.06101e-12
DILUPBiCGStab:  Solving for omega, Initial residual = 0.00508075, Final residual = 9.23469e-09, No Iterations 1
DILUPBiCGStab:  Solving for k, Initial residual = 0.0411133, Final residual = 9.97464e-10, No Iterations 2
bounding k, min: -9.5392e-05 max: 0.0904808 average: 0.000343662
ExecutionTime = 11 s  ClockTime = 11 s

Courant Number mean: 0.00326366 max: 0.615991
deltaT = 0.00065548
Time = 0.0180909

diagonal:  Solving for rho, Initial residual = 0, Final residual = 0, No Iterations 0
PIMPLE: iteration 1
DILUPBiCGStab:  Solving for h, Initial residual = 0.0180444, Final residual = 9.16525e-10, No Iterations 1
DICPCG:  Solving for p_rgh, Initial residual = 0.0722832, Final residual = 0.000704468, No Iterations 45
diagonal:  Solving for rho, Initial residual = 0, Final residual = 0, No Iterations 0
time step continuity errors : sum local = 2.36709e-05, global = 3.54838e-15, cumulative = 1.06456e-12
DICPCG:  Solving for p_rgh, Initial residual = 0.00515136, Final residual = 9.79037e-08, No Iterations 123
diagonal:  Solving for rho, Initial residual = 0, Final residual = 0, No Iterations 0
time step continuity errors : sum local = 2.08412e-05, global = -3.75743e-15, cumulative = 1.0608e-12
DILUPBiCGStab:  Solving for omega, Initial residual = 0.00391423, Final residual = 8.2434e-09, No Iterations 1
DILUPBiCGStab:  Solving for k, Initial residual = 0.0400625, Final residual = 3.952e-09, No Iterations 2
bounding k, min: -0.0089461 max: 0.224681 average: 0.000342255
ExecutionTime = 11.8 s  ClockTime = 12 s

Courant Number mean: 0.0031581 max: 0.68573
deltaT = 0.000478047
Time = 0.0185689

diagonal:  Solving for rho, Initial residual = 0, Final residual = 0, No Iterations 0
PIMPLE: iteration 1
DILUPBiCGStab:  Solving for h, Initial residual = 0.0126235, Final residual = 3.88168e-10, No Iterations 1
DICPCG:  Solving for p_rgh, Initial residual = 0.0661597, Final residual = 0.000615712, No Iterations 35
diagonal:  Solving for rho, Initial residual = 0, Final residual = 0, No Iterations 0
time step continuity errors : sum local = 1.6958e-05, global = 3.33477e-15, cumulative = 1.06414e-12
DICPCG:  Solving for p_rgh, Initial residual = 0.00623295, Final residual = 9.64028e-08, No Iterations 94
diagonal:  Solving for rho, Initial residual = 0, Final residual = 0, No Iterations 0
time step continuity errors : sum local = 1.50096e-05, global = 3.89863e-15, cumulative = 1.06804e-12
DILUPBiCGStab:  Solving for omega, Initial residual = 0.00274691, Final residual = 3.9522e-09, No Iterations 1
DILUPBiCGStab:  Solving for k, Initial residual = 0.04129, Final residual = 2.3046e-10, No Iterations 2
bounding k, min: -0.0279191 max: 0.415071 average: 0.000342964
ExecutionTime = 12.51 s  ClockTime = 13 s

Courant Number mean: 0.00252763 max: 0.497694
deltaT = 0.000480152
Time = 0.0190491

diagonal:  Solving for rho, Initial residual = 0, Final residual = 0, No Iterations 0
PIMPLE: iteration 1
DILUPBiCGStab:  Solving for h, Initial residual = 0.0122866, Final residual = 3.79768e-10, No Iterations 1
DICPCG:  Solving for p_rgh, Initial residual = 0.0636703, Final residual = 0.000597652, No Iterations 37
diagonal:  Solving for rho, Initial residual = 0, Final residual = 0, No Iterations 0
time step continuity errors : sum local = 1.49959e-05, global = 4.82583e-15, cumulative = 1.07286e-12
DICPCG:  Solving for p_rgh, Initial residual = 0.00521713, Final residual = 9.31194e-08, No Iterations 93
diagonal:  Solving for rho, Initial residual = 0, Final residual = 0, No Iterations 0
time step continuity errors : sum local = 1.32103e-05, global = -6.83837e-15, cumulative = 1.06603e-12
DILUPBiCGStab:  Solving for omega, Initial residual = 0.00267236, Final residual = 4.3161e-09, No Iterations 1
DILUPBiCGStab:  Solving for k, Initial residual = 0.0529077, Final residual = 8.98384e-11, No Iterations 2
bounding k, min: -0.0320166 max: 0.696282 average: 0.000345142
ExecutionTime = 13.27 s  ClockTime = 13 s

Courant Number mean: 0.00263952 max: 0.438402
deltaT = 0.00053487
Time = 0.019584

diagonal:  Solving for rho, Initial residual = 0, Final residual = 0, No Iterations 0
PIMPLE: iteration 1
DILUPBiCGStab:  Solving for h, Initial residual = 0.0132647, Final residual = 2.81101e-10, No Iterations 1
DICPCG:  Solving for p_rgh, Initial residual = 0.0597195, Final residual = 0.000577342, No Iterations 42
diagonal:  Solving for rho, Initial residual = 0, Final residual = 0, No Iterations 0
time step continuity errors : sum local = 1.33789e-05, global = 7.75322e-15, cumulative = 1.07378e-12
DICPCG:  Solving for p_rgh, Initial residual = 0.00360129, Final residual = 9.02382e-08, No Iterations 101
diagonal:  Solving for rho, Initial residual = 0, Final residual = 0, No Iterations 0
time step continuity errors : sum local = 1.16071e-05, global = 9.21682e-15, cumulative = 1.083e-12
DILUPBiCGStab:  Solving for omega, Initial residual = 0.00287976, Final residual = 5.72002e-09, No Iterations 1
DILUPBiCGStab:  Solving for k, Initial residual = 0.0639093, Final residual = 7.04936e-09, No Iterations 2
bounding k, min: -0.0105711 max: 1.05818 average: 0.00034862
ExecutionTime = 14.03 s  ClockTime = 14 s

Courant Number mean: 0.00289391 max: 0.383635
deltaT = 0.000604449
Time = 0.0201884

diagonal:  Solving for rho, Initial residual = 0, Final residual = 0, No Iterations 0
PIMPLE: iteration 1
DILUPBiCGStab:  Solving for h, Initial residual = 0.0144897, Final residual = 4.95517e-11, No Iterations 1
DICPCG:  Solving for p_rgh, Initial residual = 0.056, Final residual = 0.000507978, No Iterations 44
diagonal:  Solving for rho, Initial residual = 0, Final residual = 0, No Iterations 0
time step continuity errors : sum local = 1.09231e-05, global = 7.65082e-15, cumulative = 1.09065e-12
DICPCG:  Solving for p_rgh, Initial residual = 0.00216747, Final residual = 9.70639e-08, No Iterations 109
diagonal:  Solving for rho, Initial residual = 0, Final residual = 0, No Iterations 0
time step continuity errors : sum local = 9.24718e-06, global = -1.26276e-14, cumulative = 1.07802e-12
DILUPBiCGStab:  Solving for omega, Initial residual = 0.00313835, Final residual = 6.89544e-09, No Iterations 1
DILUPBiCGStab:  Solving for k, Initial residual = 0.0615099, Final residual = 1.25116e-09, No Iterations 2
bounding k, min: -1.96797e-05 max: 1.40008 average: 0.000352558
ExecutionTime = 14.8 s  ClockTime = 15 s

Courant Number mean: 0.00302173 max: 0.30232
deltaT = 0.000704394
Time = 0.0208928

diagonal:  Solving for rho, Initial residual = 0, Final residual = 0, No Iterations 0
PIMPLE: iteration 1
DILUPBiCGStab:  Solving for h, Initial residual = 0.0162645, Final residual = 4.05271e-11, No Iterations 1
DICPCG:  Solving for p_rgh, Initial residual = 0.0527777, Final residual = 0.00047381, No Iterations 46
diagonal:  Solving for rho, Initial residual = 0, Final residual = 0, No Iterations 0
time step continuity errors : sum local = 8.67411e-06, global = 6.71002e-15, cumulative = 1.08473e-12
DICPCG:  Solving for p_rgh, Initial residual = 0.00119039, Final residual = 9.21979e-08, No Iterations 121
diagonal:  Solving for rho, Initial residual = 0, Final residual = 0, No Iterations 0
time step continuity errors : sum local = 6.83222e-06, global = 1.26455e-14, cumulative = 1.09737e-12
DILUPBiCGStab:  Solving for omega, Initial residual = 0.00351186, Final residual = 7.71278e-09, No Iterations 1
DILUPBiCGStab:  Solving for k, Initial residual = 0.0426613, Final residual = 1.11308e-10, No Iterations 2
bounding k, min: -0.0286149 max: 1.58833 average: 0.000351416
ExecutionTime = 15.6 s  ClockTime = 16 s

Courant Number mean: 0.00307691 max: 0.218109
deltaT = 0.000845516
Time = 0.0217383

diagonal:  Solving for rho, Initial residual = 0, Final residual = 0, No Iterations 0
PIMPLE: iteration 1
DILUPBiCGStab:  Solving for h, Initial residual = 0.0187098, Final residual = 2.92061e-11, No Iterations 1
DICPCG:  Solving for p_rgh, Initial residual = 0.0511151, Final residual = 0.000414855, No Iterations 50
diagonal:  Solving for rho, Initial residual = 0, Final residual = 0, No Iterations 0
time step continuity errors : sum local = 8.4864e-06, global = -1.47818e-15, cumulative = 1.0959e-12
DICPCG:  Solving for p_rgh, Initial residual = 0.000766485, Final residual = 9.4439e-08, No Iterations 132
diagonal:  Solving for rho, Initial residual = 0, Final residual = 0, No Iterations 0
time step continuity errors : sum local = 5.5974e-06, global = 1.30765e-14, cumulative = 1.10897e-12
DILUPBiCGStab:  Solving for omega, Initial residual = 0.00402308, Final residual = 6.98526e-09, No Iterations 1
DILUPBiCGStab:  Solving for k, Initial residual = 0.0222163, Final residual = 1.72704e-11, No Iterations 2
bounding k, min: -0.00548551 max: 1.61537 average: 0.000354176
ExecutionTime = 16.44 s  ClockTime = 17 s

Courant Number mean: 0.00300395 max: 0.1735
deltaT = 0.00101479
Time = 0.0227531

diagonal:  Solving for rho, Initial residual = 0, Final residual = 0, No Iterations 0
PIMPLE: iteration 1
DILUPBiCGStab:  Solving for h, Initial residual = 0.0213616, Final residual = 4.93538e-11, No Iterations 1
DICPCG:  Solving for p_rgh, Initial residual = 0.0504503, Final residual = 0.000491038, No Iterations 49
diagonal:  Solving for rho, Initial residual = 0, Final residual = 0, No Iterations 0
time step continuity errors : sum local = 1.40481e-05, global = -1.06134e-14, cumulative = 1.09836e-12
DICPCG:  Solving for p_rgh, Initial residual = 0.000833097, Final residual = 9.82433e-08, No Iterations 153
diagonal:  Solving for rho, Initial residual = 0, Final residual = 0, No Iterations 0
time step continuity errors : sum local = 8.44961e-06, global = 5.12156e-15, cumulative = 1.10348e-12
DILUPBiCGStab:  Solving for omega, Initial residual = 0.00457464, Final residual = 7.20559e-09, No Iterations 1
DILUPBiCGStab:  Solving for k, Initial residual = 0.0371758, Final residual = 5.21505e-11, No Iterations 2
bounding k, min: -0.0175661 max: 1.74401 average: 0.000352446
ExecutionTime = 17.38 s  ClockTime = 18 s

Courant Number mean: 0.00342192 max: 0.267792
deltaT = 0.00120499
Time = 0.0239581

diagonal:  Solving for rho, Initial residual = 0, Final residual = 0, No Iterations 0
PIMPLE: iteration 1
DILUPBiCGStab:  Solving for h, Initial residual = 0.0239453, Final residual = 8.31406e-11, No Iterations 1
DICPCG:  Solving for p_rgh, Initial residual = 0.0498282, Final residual = 0.000498147, No Iterations 75
diagonal:  Solving for rho, Initial residual = 0, Final residual = 0, No Iterations 0
time step continuity errors : sum local = 2.72798e-05, global = -2.18141e-14, cumulative = 1.08167e-12
DICPCG:  Solving for p_rgh, Initial residual = 0.00114554, Final residual = 9.22372e-08, No Iterations 172
diagonal:  Solving for rho, Initial residual = 0, Final residual = 0, No Iterations 0
time step continuity errors : sum local = 2.04642e-05, global = -9.12416e-15, cumulative = 1.07254e-12
DILUPBiCGStab:  Solving for omega, Initial residual = 0.00510653, Final residual = 1.65479e-13, No Iterations 1
DILUPBiCGStab:  Solving for k, Initial residual = 0.120714, Final residual = 5.05717e-10, No Iterations 2
bounding k, min: -0.0647263 max: 2.57784 average: 0.000355337
ExecutionTime = 18.44 s  ClockTime = 19 s

Courant Number mean: 0.00507601 max: 0.676397
deltaT = 0.000890549
Time = 0.0248487

diagonal:  Solving for rho, Initial residual = 0, Final residual = 0, No Iterations 0
PIMPLE: iteration 1
DILUPBiCGStab:  Solving for h, Initial residual = 0.0166794, Final residual = 3.06604e-11, No Iterations 1
DICPCG:  Solving for p_rgh, Initial residual = 0.0391636, Final residual = 0.000381623, No Iterations 60
diagonal:  Solving for rho, Initial residual = 0, Final residual = 0, No Iterations 0
time step continuity errors : sum local = 2.43194e-05, global = -5.76824e-15, cumulative = 1.06677e-12
DICPCG:  Solving for p_rgh, Initial residual = 0.00173078, Final residual = 9.61556e-08, No Iterations 138
diagonal:  Solving for rho, Initial residual = 0, Final residual = 0, No Iterations 0
time step continuity errors : sum local = 2.08066e-05, global = -1.62088e-14, cumulative = 1.05057e-12
DILUPBiCGStab:  Solving for omega, Initial residual = 0.00358931, Final residual = 6.63716e-14, No Iterations 1
DILUPBiCGStab:  Solving for k, Initial residual = 0.143178, Final residual = 3.22741e-10, No Iterations 2
bounding k, min: -0.086589 max: 3.87439 average: 0.000371368
ExecutionTime = 19.36 s  ClockTime = 20 s

Courant Number mean: 0.00433983 max: 0.696156
deltaT = 0.000639444
Time = 0.0254881

diagonal:  Solving for rho, Initial residual = 0, Final residual = 0, No Iterations 0
PIMPLE: iteration 1
DILUPBiCGStab:  Solving for h, Initial residual = 0.0114811, Final residual = 2.12656e-10, No Iterations 1
DICPCG:  Solving for p_rgh, Initial residual = 0.0343957, Final residual = 0.000308611, No Iterations 44
diagonal:  Solving for rho, Initial residual = 0, Final residual = 0, No Iterations 0
time step continuity errors : sum local = 1.87321e-05, global = 1.31024e-14, cumulative = 1.06367e-12
DICPCG:  Solving for p_rgh, Initial residual = 0.00233309, Final residual = 9.93012e-08, No Iterations 114
diagonal:  Solving for rho, Initial residual = 0, Final residual = 0, No Iterations 0
time step continuity errors : sum local = 1.63994e-05, global = 3.37228e-15, cumulative = 1.06704e-12
DILUPBiCGStab:  Solving for omega, Initial residual = 0.00249019, Final residual = 5.58516e-09, No Iterations 1
DILUPBiCGStab:  Solving for k, Initial residual = 0.143117, Final residual = 4.43886e-10, No Iterations 2
bounding k, min: -0.841271 max: 5.51694 average: 0.000382022
ExecutionTime = 20.16 s  ClockTime = 20 s

Courant Number mean: 0.00332026 max: 0.550177
deltaT = 0.000581104
Time = 0.0260692

diagonal:  Solving for rho, Initial residual = 0, Final residual = 0, No Iterations 0
PIMPLE: iteration 1
DILUPBiCGStab:  Solving for h, Initial residual = 0.0101167, Final residual = 5.20751e-11, No Iterations 1
DICPCG:  Solving for p_rgh, Initial residual = 0.0330613, Final residual = 0.000323582, No Iterations 43
diagonal:  Solving for rho, Initial residual = 0, Final residual = 0, No Iterations 0
time step continuity errors : sum local = 1.65518e-05, global = 1.01093e-14, cumulative = 1.07715e-12
DICPCG:  Solving for p_rgh, Initial residual = 0.0023867, Final residual = 9.27257e-08, No Iterations 105
diagonal:  Solving for rho, Initial residual = 0, Final residual = 0, No Iterations 0
time step continuity errors : sum local = 1.42914e-05, global = -9.52753e-16, cumulative = 1.0762e-12
DILUPBiCGStab:  Solving for omega, Initial residual = 0.00219911, Final residual = 4.38174e-09, No Iterations 1
DILUPBiCGStab:  Solving for k, Initial residual = 0.0810325, Final residual = 4.31984e-10, No Iterations 2
bounding k, min: -0.0457303 max: 6.87924 average: 0.000419404
ExecutionTime = 20.9 s  ClockTime = 21 s

Courant Number mean: 0.00308711 max: 0.47962
deltaT = 0.000605678
Time = 0.0266749

diagonal:  Solving for rho, Initial residual = 0, Final residual = 0, No Iterations 0
PIMPLE: iteration 1
DILUPBiCGStab:  Solving for h, Initial residual = 0.0102525, Final residual = 1.4228e-10, No Iterations 1
DICPCG:  Solving for p_rgh, Initial residual = 0.0318036, Final residual = 0.000310443, No Iterations 46
diagonal:  Solving for rho, Initial residual = 0, Final residual = 0, No Iterations 0
time step continuity errors : sum local = 1.58785e-05, global = 8.62677e-15, cumulative = 1.08482e-12
DICPCG:  Solving for p_rgh, Initial residual = 0.00202853, Final residual = 9.39902e-08, No Iterations 108
diagonal:  Solving for rho, Initial residual = 0, Final residual = 0, No Iterations 0
time step continuity errors : sum local = 1.35701e-05, global = 5.89298e-15, cumulative = 1.09072e-12
DILUPBiCGStab:  Solving for omega, Initial residual = 0.00222773, Final residual = 4.80964e-09, No Iterations 1
DILUPBiCGStab:  Solving for k, Initial residual = 0.0645446, Final residual = 7.46819e-10, No Iterations 2
bounding k, min: -0.0154404 max: 8.09446 average: 0.000429943
ExecutionTime = 21.74 s  ClockTime = 22 s

Courant Number mean: 0.00319016 max: 0.45416
deltaT = 0.000666661
Time = 0.0273415

diagonal:  Solving for rho, Initial residual = 0, Final residual = 0, No Iterations 0
PIMPLE: iteration 1
DILUPBiCGStab:  Solving for h, Initial residual = 0.0109641, Final residual = 1.9579e-10, No Iterations 1
DICPCG:  Solving for p_rgh, Initial residual = 0.0305417, Final residual = 0.000288695, No Iterations 50
diagonal:  Solving for rho, Initial residual = 0, Final residual = 0, No Iterations 0
time step continuity errors : sum local = 1.58912e-05, global = -7.46803e-15, cumulative = 1.08325e-12
DICPCG:  Solving for p_rgh, Initial residual = 0.0016181, Final residual = 9.99643e-08, No Iterations 115
diagonal:  Solving for rho, Initial residual = 0, Final residual = 0, No Iterations 0
time step continuity errors : sum local = 1.35886e-05, global = -1.07715e-14, cumulative = 1.07248e-12
DILUPBiCGStab:  Solving for omega, Initial residual = 0.00237844, Final residual = 5.70511e-09, No Iterations 1
DILUPBiCGStab:  Solving for k, Initial residual = 0.0576925, Final residual = 1.39402e-09, No Iterations 2
bounding k, min: -0.0296587 max: 9.16325 average: 0.000436045
ExecutionTime = 22.55 s  ClockTime = 23 s

Courant Number mean: 0.0033681 max: 0.452846
deltaT = 0.000736305
Time = 0.0280779

diagonal:  Solving for rho, Initial residual = 0, Final residual = 0, No Iterations 0
PIMPLE: iteration 1
DILUPBiCGStab:  Solving for h, Initial residual = 0.0117405, Final residual = 1.91469e-10, No Iterations 1
DICPCG:  Solving for p_rgh, Initial residual = 0.0294014, Final residual = 0.000267301, No Iterations 51
diagonal:  Solving for rho, Initial residual = 0, Final residual = 0, No Iterations 0
time step continuity errors : sum local = 1.67228e-05, global = -2.52093e-16, cumulative = 1.07222e-12
DICPCG:  Solving for p_rgh, Initial residual = 0.00135615, Final residual = 9.46614e-08, No Iterations 123
diagonal:  Solving for rho, Initial residual = 0, Final residual = 0, No Iterations 0
time step continuity errors : sum local = 1.42759e-05, global = 4.02295e-15, cumulative = 1.07625e-12
DILUPBiCGStab:  Solving for omega, Initial residual = 0.00254153, Final residual = 6.15045e-09, No Iterations 1
DILUPBiCGStab:  Solving for k, Initial residual = 0.0634051, Final residual = 4.69608e-09, No Iterations 2
bounding k, min: -0.609729 max: 10.2517 average: 0.000441357
ExecutionTime = 23.43 s  ClockTime = 24 s

Courant Number mean: 0.00344191 max: 0.473782
deltaT = 0.000776916
Time = 0.0288548

diagonal:  Solving for rho, Initial residual = 0, Final residual = 0, No Iterations 0
PIMPLE: iteration 1
DILUPBiCGStab:  Solving for h, Initial residual = 0.0119866, Final residual = 1.55257e-10, No Iterations 1
DICPCG:  Solving for p_rgh, Initial residual = 0.0282136, Final residual = 0.000267533, No Iterations 51
diagonal:  Solving for rho, Initial residual = 0, Final residual = 0, No Iterations 0
time step continuity errors : sum local = 1.70071e-05, global = 2.16036e-15, cumulative = 1.07841e-12
DICPCG:  Solving for p_rgh, Initial residual = 0.00120234, Final residual = 8.96782e-08, No Iterations 127
diagonal:  Solving for rho, Initial residual = 0, Final residual = 0, No Iterations 0
time step continuity errors : sum local = 1.40296e-05, global = -2.33755e-15, cumulative = 1.07607e-12
DILUPBiCGStab:  Solving for omega, Initial residual = 0.0025907, Final residual = 5.06425e-09, No Iterations 1
DILUPBiCGStab:  Solving for k, Initial residual = 0.0338888, Final residual = 3.31953e-09, No Iterations 2
bounding k, min: -0.0343183 max: 10.0793 average: 0.00047913
ExecutionTime = 24.3 s  ClockTime = 25 s

Courant Number mean: 0.003231 max: 0.464489
deltaT = 0.000836473
Time = 0.0296912

diagonal:  Solving for rho, Initial residual = 0, Final residual = 0, No Iterations 0
PIMPLE: iteration 1
DILUPBiCGStab:  Solving for h, Initial residual = 0.0124732, Final residual = 1.55324e-10, No Iterations 1
DICPCG:  Solving for p_rgh, Initial residual = 0.0271697, Final residual = 0.00026502, No Iterations 53
diagonal:  Solving for rho, Initial residual = 0, Final residual = 0, No Iterations 0
time step continuity errors : sum local = 1.71541e-05, global = 2.04757e-14, cumulative = 1.09655e-12
DICPCG:  Solving for p_rgh, Initial residual = 0.00100804, Final residual = 9.39625e-08, No Iterations 139
diagonal:  Solving for rho, Initial residual = 0, Final residual = 0, No Iterations 0
time step continuity errors : sum local = 1.39574e-05, global = -1.43491e-15, cumulative = 1.09511e-12
DILUPBiCGStab:  Solving for omega, Initial residual = 0.00269031, Final residual = 3.46937e-09, No Iterations 1
DILUPBiCGStab:  Solving for k, Initial residual = 0.0363163, Final residual = 5.45267e-09, No Iterations 2
bounding k, min: -0.279096 max: 9.7249 average: 0.000479216
ExecutionTime = 25.2 s  ClockTime = 26 s

Courant Number mean: 0.00296426 max: 0.460454
deltaT = 0.000908529
Time = 0.0305998

diagonal:  Solving for rho, Initial residual = 0, Final residual = 0, No Iterations 0
PIMPLE: iteration 1
DILUPBiCGStab:  Solving for h, Initial residual = 0.0130721, Final residual = 1.16158e-10, No Iterations 1
DICPCG:  Solving for p_rgh, Initial residual = 0.0263512, Final residual = 0.00026127, No Iterations 51
diagonal:  Solving for rho, Initial residual = 0, Final residual = 0, No Iterations 0
time step continuity errors : sum local = 1.78051e-05, global = 1.18898e-14, cumulative = 1.107e-12
DICPCG:  Solving for p_rgh, Initial residual = 0.000858756, Final residual = 9.3267e-08, No Iterations 151
diagonal:  Solving for rho, Initial residual = 0, Final residual = 0, No Iterations 0
time step continuity errors : sum local = 1.40414e-05, global = 2.89432e-14, cumulative = 1.13594e-12
DILUPBiCGStab:  Solving for omega, Initial residual = 0.00281162, Final residual = 2.1863e-09, No Iterations 1
DILUPBiCGStab:  Solving for k, Initial residual = 0.0387493, Final residual = 7.15542e-09, No Iterations 2
bounding k, min: -0.0498055 max: 9.20436 average: 0.000478783
ExecutionTime = 26.15 s  ClockTime = 26 s

Courant Number mean: 0.00268315 max: 0.461594
deltaT = 0.000984163
Time = 0.0315839

diagonal:  Solving for rho, Initial residual = 0, Final residual = 0, No Iterations 0
PIMPLE: iteration 1
DILUPBiCGStab:  Solving for h, Initial residual = 0.0136317, Final residual = 6.39826e-11, No Iterations 1
DICPCG:  Solving for p_rgh, Initial residual = 0.0256304, Final residual = 0.000252595, No Iterations 49
diagonal:  Solving for rho, Initial residual = 0, Final residual = 0, No Iterations 0
time step continuity errors : sum local = 1.89093e-05, global = -3.81606e-15, cumulative = 1.13213e-12
DICPCG:  Solving for p_rgh, Initial residual = 0.000756501, Final residual = 9.44193e-08, No Iterations 156
diagonal:  Solving for rho, Initial residual = 0, Final residual = 0, No Iterations 0
time step continuity errors : sum local = 1.43947e-05, global = -3.01219e-14, cumulative = 1.10201e-12
DILUPBiCGStab:  Solving for omega, Initial residual = 0.00292423, Final residual = 4.50382e-09, No Iterations 1
DILUPBiCGStab:  Solving for k, Initial residual = 0.0373067, Final residual = 7.80731e-09, No Iterations 2
bounding k, min: -0.256611 max: 8.63589 average: 0.000474257
ExecutionTime = 27.08 s  ClockTime = 27 s

Courant Number mean: 0.00310169 max: 0.471892
deltaT = 0.00104243
Time = 0.0326264

diagonal:  Solving for rho, Initial residual = 0, Final residual = 0, No Iterations 0
PIMPLE: iteration 1
DILUPBiCGStab:  Solving for h, Initial residual = 0.0138685, Final residual = 8.12666e-11, No Iterations 1
DICPCG:  Solving for p_rgh, Initial residual = 0.0247906, Final residual = 0.000219953, No Iterations 58
diagonal:  Solving for rho, Initial residual = 0, Final residual = 0, No Iterations 0
time step continuity errors : sum local = 1.91455e-05, global = 1.14138e-14, cumulative = 1.11342e-12
DICPCG:  Solving for p_rgh, Initial residual = 0.00067182, Final residual = 9.83075e-08, No Iterations 163
diagonal:  Solving for rho, Initial residual = 0, Final residual = 0, No Iterations 0
time step continuity errors : sum local = 1.5127e-05, global = 1.95006e-14, cumulative = 1.13292e-12
DILUPBiCGStab:  Solving for omega, Initial residual = 0.00296922, Final residual = 6.91631e-09, No Iterations 1
DILUPBiCGStab:  Solving for k, Initial residual = 0.0289401, Final residual = 5.44283e-09, No Iterations 2
bounding k, min: -0.0422407 max: 8.2439 average: 0.000472224
ExecutionTime = 28.03 s  ClockTime = 28 s

Courant Number mean: 0.00352638 max: 0.495626
deltaT = 0.00105149
Time = 0.0336779

diagonal:  Solving for rho, Initial residual = 0, Final residual = 0, No Iterations 0
PIMPLE: iteration 1
DILUPBiCGStab:  Solving for h, Initial residual = 0.0134254, Final residual = 7.42108e-11, No Iterations 1
DICPCG:  Solving for p_rgh, Initial residual = 0.0235096, Final residual = 0.000227908, No Iterations 63
diagonal:  Solving for rho, Initial residual = 0, Final residual = 0, No Iterations 0
time step continuity errors : sum local = 2.00805e-05, global = -1.53026e-14, cumulative = 1.11762e-12
DICPCG:  Solving for p_rgh, Initial residual = 0.000676412, Final residual = 9.2658e-08, No Iterations 164
diagonal:  Solving for rho, Initial residual = 0, Final residual = 0, No Iterations 0
time step continuity errors : sum local = 1.58181e-05, global = 3.29791e-15, cumulative = 1.12092e-12
DILUPBiCGStab:  Solving for omega, Initial residual = 0.00287321, Final residual = 6.82303e-09, No Iterations 1
DILUPBiCGStab:  Solving for k, Initial residual = 0.0189541, Final residual = 3.06233e-09, No Iterations 2
bounding k, min: -0.0275973 max: 8.1189 average: 0.00047215
ExecutionTime = 28.99 s  ClockTime = 29 s

Courant Number mean: 0.00355035 max: 0.519229
deltaT = 0.00101292
Time = 0.0346908

diagonal:  Solving for rho, Initial residual = 0, Final residual = 0, No Iterations 0
PIMPLE: iteration 1
DILUPBiCGStab:  Solving for h, Initial residual = 0.0124268, Final residual = 5.85452e-11, No Iterations 1
DICPCG:  Solving for p_rgh, Initial residual = 0.0219148, Final residual = 0.000201811, No Iterations 63
diagonal:  Solving for rho, Initial residual = 0, Final residual = 0, No Iterations 0
time step continuity errors : sum local = 1.96466e-05, global = -1.50961e-14, cumulative = 1.10582e-12
DICPCG:  Solving for p_rgh, Initial residual = 0.000692689, Final residual = 9.67924e-08, No Iterations 159
diagonal:  Solving for rho, Initial residual = 0, Final residual = 0, No Iterations 0
time step continuity errors : sum local = 1.59914e-05, global = -9.94644e-15, cumulative = 1.09587e-12
DILUPBiCGStab:  Solving for omega, Initial residual = 0.00266229, Final residual = 4.71531e-09, No Iterations 1
DILUPBiCGStab:  Solving for k, Initial residual = 0.0190087, Final residual = 3.15952e-09, No Iterations 2
bounding k, min: -0.0426085 max: 8.21056 average: 0.000470864
ExecutionTime = 29.95 s  ClockTime = 30 s

Courant Number mean: 0.00322615 max: 0.526155
deltaT = 0.000962422
Time = 0.0356532

diagonal:  Solving for rho, Initial residual = 0, Final residual = 0, No Iterations 0
PIMPLE: iteration 1
DILUPBiCGStab:  Solving for h, Initial residual = 0.0113745, Final residual = 6.84098e-11, No Iterations 1
DICPCG:  Solving for p_rgh, Initial residual = 0.0204233, Final residual = 0.000186025, No Iterations 60
diagonal:  Solving for rho, Initial residual = 0, Final residual = 0, No Iterations 0
time step continuity errors : sum local = 1.89717e-05, global = 7.6044e-15, cumulative = 1.10348e-12
DICPCG:  Solving for p_rgh, Initial residual = 0.000717279, Final residual = 9.53377e-08, No Iterations 154
diagonal:  Solving for rho, Initial residual = 0, Final residual = 0, No Iterations 0
time step continuity errors : sum local = 1.57617e-05, global = -1.48939e-14, cumulative = 1.08858e-12
DILUPBiCGStab:  Solving for omega, Initial residual = 0.00244017, Final residual = 2.79363e-09, No Iterations 1
DILUPBiCGStab:  Solving for k, Initial residual = 0.0197117, Final residual = 3.12729e-09, No Iterations 2
bounding k, min: -0.0310707 max: 8.4091 average: 0.000473509
ExecutionTime = 30.91 s  ClockTime = 31 s

Courant Number mean: 0.0028482 max: 0.519707
deltaT = 0.000926366
Time = 0.0365796

diagonal:  Solving for rho, Initial residual = 0, Final residual = 0, No Iterations 0
PIMPLE: iteration 1
DILUPBiCGStab:  Solving for h, Initial residual = 0.010575, Final residual = 6.64505e-11, No Iterations 1
DICPCG:  Solving for p_rgh, Initial residual = 0.0192357, Final residual = 0.000191651, No Iterations 57
diagonal:  Solving for rho, Initial residual = 0, Final residual = 0, No Iterations 0
time step continuity errors : sum local = 1.87794e-05, global = 1.99942e-14, cumulative = 1.10858e-12
DICPCG:  Solving for p_rgh, Initial residual = 0.000742121, Final residual = 9.94442e-08, No Iterations 143
diagonal:  Solving for rho, Initial residual = 0, Final residual = 0, No Iterations 0
time step continuity errors : sum local = 1.55151e-05, global = 5.7829e-15, cumulative = 1.11436e-12
DILUPBiCGStab:  Solving for omega, Initial residual = 0.00227076, Final residual = 2.58044e-09, No Iterations 1
DILUPBiCGStab:  Solving for k, Initial residual = 0.0180102, Final residual = 2.15621e-09, No Iterations 2
bounding k, min: -0.0452066 max: 8.63261 average: 0.000473617
ExecutionTime = 31.77 s  ClockTime = 32 s

Courant Number mean: 0.00289828 max: 0.512274
deltaT = 0.000903772
Time = 0.0374833

diagonal:  Solving for rho, Initial residual = 0, Final residual = 0, No Iterations 0
PIMPLE: iteration 1
DILUPBiCGStab:  Solving for h, Initial residual = 0.0099851, Final residual = 7.05484e-11, No Iterations 1
DICPCG:  Solving for p_rgh, Initial residual = 0.0182753, Final residual = 0.000178688, No Iterations 58
diagonal:  Solving for rho, Initial residual = 0, Final residual = 0, No Iterations 0
time step continuity errors : sum local = 1.83729e-05, global = -1.46045e-15, cumulative = 1.1129e-12
DICPCG:  Solving for p_rgh, Initial residual = 0.000744884, Final residual = 9.97944e-08, No Iterations 134
diagonal:  Solving for rho, Initial residual = 0, Final residual = 0, No Iterations 0
time step continuity errors : sum local = 1.53578e-05, global = 1.99248e-15, cumulative = 1.11489e-12
DILUPBiCGStab:  Solving for omega, Initial residual = 0.00214494, Final residual = 3.56141e-09, No Iterations 1
DILUPBiCGStab:  Solving for k, Initial residual = 0.0160231, Final residual = 1.5557e-09, No Iterations 2
bounding k, min: -0.0210462 max: 8.85207 average: 0.000477241
ExecutionTime = 32.62 s  ClockTime = 33 s

Courant Number mean: 0.00314373 max: 0.507725
deltaT = 0.000890395
Time = 0.0383737

diagonal:  Solving for rho, Initial residual = 0, Final residual = 0, No Iterations 0
PIMPLE: iteration 1
DILUPBiCGStab:  Solving for h, Initial residual = 0.00953478, Final residual = 6.61037e-11, No Iterations 1
DICPCG:  Solving for p_rgh, Initial residual = 0.0174656, Final residual = 0.000171985, No Iterations 60
diagonal:  Solving for rho, Initial residual = 0, Final residual = 0, No Iterations 0
time step continuity errors : sum local = 1.82816e-05, global = 1.49336e-14, cumulative = 1.12983e-12
DICPCG:  Solving for p_rgh, Initial residual = 0.000745901, Final residual = 9.37063e-08, No Iterations 133
diagonal:  Solving for rho, Initial residual = 0, Final residual = 0, No Iterations 0
time step continuity errors : sum local = 1.53311e-05, global = 1.20375e-14, cumulative = 1.14186e-12
DILUPBiCGStab:  Solving for omega, Initial residual = 0.00204836, Final residual = 4.28354e-09, No Iterations 1
DILUPBiCGStab:  Solving for k, Initial residual = 0.0154481, Final residual = 1.55616e-09, No Iterations 2
bounding k, min: -0.0448664 max: 9.06709 average: 0.000476968
ExecutionTime = 33.52 s  ClockTime = 34 s

Courant Number mean: 0.00333713 max: 0.50734
deltaT = 0.000877396
Time = 0.0392511

diagonal:  Solving for rho, Initial residual = 0, Final residual = 0, No Iterations 0
PIMPLE: iteration 1
DILUPBiCGStab:  Solving for h, Initial residual = 0.00911706, Final residual = 6.79765e-11, No Iterations 1
DICPCG:  Solving for p_rgh, Initial residual = 0.016734, Final residual = 0.000158865, No Iterations 62
diagonal:  Solving for rho, Initial residual = 0, Final residual = 0, No Iterations 0
time step continuity errors : sum local = 1.80713e-05, global = -1.25069e-14, cumulative = 1.12936e-12
DICPCG:  Solving for p_rgh, Initial residual = 0.000744563, Final residual = 9.60185e-08, No Iterations 132
diagonal:  Solving for rho, Initial residual = 0, Final residual = 0, No Iterations 0
time step continuity errors : sum local = 1.52831e-05, global = -1.53828e-14, cumulative = 1.11397e-12
DILUPBiCGStab:  Solving for omega, Initial residual = 0.00195851, Final residual = 4.50009e-09, No Iterations 1
DILUPBiCGStab:  Solving for k, Initial residual = 0.0151766, Final residual = 1.5233e-09, No Iterations 2
bounding k, min: -0.0182982 max: 9.27809 average: 0.00048054
ExecutionTime = 34.41 s  ClockTime = 35 s

Courant Number mean: 0.00341872 max: 0.506287
deltaT = 0.00086632
Time = 0.0401174

diagonal:  Solving for rho, Initial residual = 0, Final residual = 0, No Iterations 0
PIMPLE: iteration 1
DILUPBiCGStab:  Solving for h, Initial residual = 0.00874432, Final residual = 6.27301e-11, No Iterations 1
DICPCG:  Solving for p_rgh, Initial residual = 0.0160723, Final residual = 0.000151088, No Iterations 62
diagonal:  Solving for rho, Initial residual = 0, Final residual = 0, No Iterations 0
time step continuity errors : sum local = 1.78986e-05, global = 9.90928e-15, cumulative = 1.12388e-12
DICPCG:  Solving for p_rgh, Initial residual = 0.000741002, Final residual = 9.6445e-08, No Iterations 130
diagonal:  Solving for rho, Initial residual = 0, Final residual = 0, No Iterations 0
time step continuity errors : sum local = 1.51661e-05, global = 1.47266e-16, cumulative = 1.12403e-12
DILUPBiCGStab:  Solving for omega, Initial residual = 0.00187824, Final residual = 4.29596e-09, No Iterations 1
DILUPBiCGStab:  Solving for k, Initial residual = 0.0145694, Final residual = 1.29545e-09, No Iterations 2
bounding k, min: -0.0454507 max: 9.45965 average: 0.000481124
ExecutionTime = 35.46 s  ClockTime = 36 s

Courant Number mean: 0.00338872 max: 0.502741
deltaT = 0.000861654
Time = 0.0409791

diagonal:  Solving for rho, Initial residual = 0, Final residual = 0, No Iterations 0
PIMPLE: iteration 1
DILUPBiCGStab:  Solving for h, Initial residual = 0.00845595, Final residual = 6.32309e-11, No Iterations 1
DICPCG:  Solving for p_rgh, Initial residual = 0.0154801, Final residual = 0.000142095, No Iterations 62
diagonal:  Solving for rho, Initial residual = 0, Final residual = 0, No Iterations 0
time step continuity errors : sum local = 1.76603e-05, global = 1.44127e-14, cumulative = 1.13844e-12
DICPCG:  Solving for p_rgh, Initial residual = 0.000722424, Final residual = 9.60081e-08, No Iterations 129
diagonal:  Solving for rho, Initial residual = 0, Final residual = 0, No Iterations 0
time step continuity errors : sum local = 1.49936e-05, global = 4.32388e-15, cumulative = 1.14277e-12
DILUPBiCGStab:  Solving for omega, Initial residual = 0.0018155, Final residual = 3.83943e-09, No Iterations 1
DILUPBiCGStab:  Solving for k, Initial residual = 0.0137058, Final residual = 7.60932e-10, No Iterations 2
bounding k, min: -0.010375 max: 9.57661 average: 0.000485361
ExecutionTime = 36.32 s  ClockTime = 37 s

Courant Number mean: 0.00327671 max: 0.497264
deltaT = 0.000866324
Time = 0.0418454

diagonal:  Solving for rho, Initial residual = 0, Final residual = 0, No Iterations 0
PIMPLE: iteration 1
DILUPBiCGStab:  Solving for h, Initial residual = 0.00827121, Final residual = 5.43565e-11, No Iterations 1
DICPCG:  Solving for p_rgh, Initial residual = 0.0149397, Final residual = 0.000147154, No Iterations 60
diagonal:  Solving for rho, Initial residual = 0, Final residual = 0, No Iterations 0
time step continuity errors : sum local = 1.75835e-05, global = -2.55515e-15, cumulative = 1.14021e-12
DICPCG:  Solving for p_rgh, Initial residual = 0.000695025, Final residual = 9.25508e-08, No Iterations 129
diagonal:  Solving for rho, Initial residual = 0, Final residual = 0, No Iterations 0
time step continuity errors : sum local = 1.47782e-05, global = 2.0254e-14, cumulative = 1.16047e-12
DILUPBiCGStab:  Solving for omega, Initial residual = 0.0017745, Final residual = 3.25234e-09, No Iterations 1
DILUPBiCGStab:  Solving for k, Initial residual = 0.0123531, Final residual = 3.65632e-10, No Iterations 2
bounding k, min: -0.0385932 max: 9.58622 average: 0.000484714
ExecutionTime = 37.25 s  ClockTime = 38 s

Courant Number mean: 0.00311459 max: 0.490055
deltaT = 0.000883906
Time = 0.0427293

diagonal:  Solving for rho, Initial residual = 0, Final residual = 0, No Iterations 0
PIMPLE: iteration 1
DILUPBiCGStab:  Solving for h, Initial residual = 0.00821265, Final residual = 4.66149e-11, No Iterations 1
DICPCG:  Solving for p_rgh, Initial residual = 0.0144529, Final residual = 0.000140892, No Iterations 60
diagonal:  Solving for rho, Initial residual = 0, Final residual = 0, No Iterations 0
time step continuity errors : sum local = 1.74259e-05, global = -9.39813e-15, cumulative = 1.15107e-12
DICPCG:  Solving for p_rgh, Initial residual = 0.000647981, Final residual = 9.02818e-08, No Iterations 130
diagonal:  Solving for rho, Initial residual = 0, Final residual = 0, No Iterations 0
time step continuity errors : sum local = 1.46038e-05, global = -1.28764e-14, cumulative = 1.13819e-12
DILUPBiCGStab:  Solving for omega, Initial residual = 0.0017598, Final residual = 2.62395e-09, No Iterations 1
DILUPBiCGStab:  Solving for k, Initial residual = 0.015809, Final residual = 1.50634e-09, No Iterations 2
bounding k, min: -0.264916 max: 9.46524 average: 0.000482555
ExecutionTime = 38.11 s  ClockTime = 39 s

Courant Number mean: 0.00294202 max: 0.483968
deltaT = 0.000913426
Time = 0.0436428

diagonal:  Solving for rho, Initial residual = 0, Final residual = 0, No Iterations 0
PIMPLE: iteration 1
DILUPBiCGStab:  Solving for h, Initial residual = 0.0082584, Final residual = 3.89331e-11, No Iterations 1
DICPCG:  Solving for p_rgh, Initial residual = 0.0140157, Final residual = 0.000133898, No Iterations 60
diagonal:  Solving for rho, Initial residual = 0, Final residual = 0, No Iterations 0
time step continuity errors : sum local = 1.73741e-05, global = -1.98728e-15, cumulative = 1.1362e-12
DICPCG:  Solving for p_rgh, Initial residual = 0.000593951, Final residual = 9.44358e-08, No Iterations 131
diagonal:  Solving for rho, Initial residual = 0, Final residual = 0, No Iterations 0
time step continuity errors : sum local = 1.4521e-05, global = -5.31757e-15, cumulative = 1.13089e-12
DILUPBiCGStab:  Solving for omega, Initial residual = 0.00176638, Final residual = 2.01943e-09, No Iterations 1
DILUPBiCGStab:  Solving for k, Initial residual = 0.0186293, Final residual = 2.22533e-09, No Iterations 2
bounding k, min: -0.0372562 max: 9.23539 average: 0.0004821
ExecutionTime = 38.97 s  ClockTime = 40 s

Courant Number mean: 0.00277993 max: 0.480945
deltaT = 0.000949709
Time = 0.0445925

diagonal:  Solving for rho, Initial residual = 0, Final residual = 0, No Iterations 0
PIMPLE: iteration 1
DILUPBiCGStab:  Solving for h, Initial residual = 0.00835181, Final residual = 2.77482e-11, No Iterations 1
DICPCG:  Solving for p_rgh, Initial residual = 0.0136093, Final residual = 0.000123373, No Iterations 60
diagonal:  Solving for rho, Initial residual = 0, Final residual = 0, No Iterations 0
time step continuity errors : sum local = 1.73985e-05, global = 1.1584e-14, cumulative = 1.14247e-12
DICPCG:  Solving for p_rgh, Initial residual = 0.000541332, Final residual = 9.84112e-08, No Iterations 133
diagonal:  Solving for rho, Initial residual = 0, Final residual = 0, No Iterations 0
time step continuity errors : sum local = 1.45455e-05, global = 2.83253e-15, cumulative = 1.1453e-12
DILUPBiCGStab:  Solving for omega, Initial residual = 0.00178282, Final residual = 1.73255e-09, No Iterations 1
DILUPBiCGStab:  Solving for k, Initial residual = 0.0198216, Final residual = 2.59995e-09, No Iterations 2
bounding k, min: -0.227845 max: 8.92952 average: 0.000477314
ExecutionTime = 39.85 s  ClockTime = 40 s

Courant Number mean: 0.00265294 max: 0.481374
deltaT = 0.000985973
Time = 0.0455784

diagonal:  Solving for rho, Initial residual = 0, Final residual = 0, No Iterations 0
PIMPLE: iteration 1
DILUPBiCGStab:  Solving for h, Initial residual = 0.00842921, Final residual = 2.91595e-11, No Iterations 1
DICPCG:  Solving for p_rgh, Initial residual = 0.0132112, Final residual = 0.000130042, No Iterations 58
diagonal:  Solving for rho, Initial residual = 0, Final residual = 0, No Iterations 0
time step continuity errors : sum local = 1.77793e-05, global = -7.60998e-15, cumulative = 1.13769e-12
DICPCG:  Solving for p_rgh, Initial residual = 0.000507543, Final residual = 9.41288e-08, No Iterations 143
diagonal:  Solving for rho, Initial residual = 0, Final residual = 0, No Iterations 0
time step continuity errors : sum local = 1.47007e-05, global = 1.22297e-15, cumulative = 1.13892e-12
DILUPBiCGStab:  Solving for omega, Initial residual = 0.00179553, Final residual = 1.85673e-09, No Iterations 1
DILUPBiCGStab:  Solving for k, Initial residual = 0.0188059, Final residual = 2.15293e-09, No Iterations 2
bounding k, min: -0.0359329 max: 8.62127 average: 0.000475587
ExecutionTime = 40.71 s  ClockTime = 41 s

Courant Number mean: 0.00265013 max: 0.486481
deltaT = 0.00101319
Time = 0.0465916

diagonal:  Solving for rho, Initial residual = 0, Final residual = 0, No Iterations 0
PIMPLE: iteration 1
DILUPBiCGStab:  Solving for h, Initial residual = 0.00841486, Final residual = 3.78141e-11, No Iterations 1
DICPCG:  Solving for p_rgh, Initial residual = 0.0127892, Final residual = 0.00011502, No Iterations 60
diagonal:  Solving for rho, Initial residual = 0, Final residual = 0, No Iterations 0
time step continuity errors : sum local = 1.79267e-05, global = -1.05504e-14, cumulative = 1.12837e-12
DICPCG:  Solving for p_rgh, Initial residual = 0.000478633, Final residual = 9.80921e-08, No Iterations 154
diagonal:  Solving for rho, Initial residual = 0, Final residual = 0, No Iterations 0
time step continuity errors : sum local = 1.49656e-05, global = -9.77177e-16, cumulative = 1.12739e-12
DILUPBiCGStab:  Solving for omega, Initial residual = 0.00178981, Final residual = 1.98933e-09, No Iterations 1
DILUPBiCGStab:  Solving for k, Initial residual = 0.0163923, Final residual = 2.03328e-09, No Iterations 2
bounding k, min: -0.21892 max: 8.36928 average: 0.000468765
ExecutionTime = 41.66 s  ClockTime = 42 s

Courant Number mean: 0.00271791 max: 0.495125
deltaT = 0.00102297
Time = 0.0476146

diagonal:  Solving for rho, Initial residual = 0, Final residual = 0, No Iterations 0
PIMPLE: iteration 1
DILUPBiCGStab:  Solving for h, Initial residual = 0.00825039, Final residual = 2.85351e-11, No Iterations 1
DICPCG:  Solving for p_rgh, Initial residual = 0.0123193, Final residual = 0.000118289, No Iterations 60
diagonal:  Solving for rho, Initial residual = 0, Final residual = 0, No Iterations 0
time step continuity errors : sum local = 1.83026e-05, global = 1.48792e-14, cumulative = 1.14227e-12
DICPCG:  Solving for p_rgh, Initial residual = 0.000474905, Final residual = 9.32269e-08, No Iterations 155
diagonal:  Solving for rho, Initial residual = 0, Final residual = 0, No Iterations 0
time step continuity errors : sum local = 1.52542e-05, global = 6.67675e-15, cumulative = 1.14894e-12
DILUPBiCGStab:  Solving for omega, Initial residual = 0.00175368, Final residual = 1.9553e-09, No Iterations 1
DILUPBiCGStab:  Solving for k, Initial residual = 0.0137896, Final residual = 1.24319e-09, No Iterations 2
bounding k, min: -0.0377627 max: 8.22994 average: 0.000468449
ExecutionTime = 42.56 s  ClockTime = 43 s

Courant Number mean: 0.0027233 max: 0.505384
deltaT = 0.0010121
Time = 0.0486267

diagonal:  Solving for rho, Initial residual = 0, Final residual = 0, No Iterations 0
PIMPLE: iteration 1
DILUPBiCGStab:  Solving for h, Initial residual = 0.00792927, Final residual = 2.80712e-11, No Iterations 1
DICPCG:  Solving for p_rgh, Initial residual = 0.0118115, Final residual = 0.000112608, No Iterations 62
diagonal:  Solving for rho, Initial residual = 0, Final residual = 0, No Iterations 0
time step continuity errors : sum local = 1.83153e-05, global = -1.24685e-14, cumulative = 1.13648e-12
DICPCG:  Solving for p_rgh, Initial residual = 0.000479653, Final residual = 9.91967e-08, No Iterations 154
diagonal:  Solving for rho, Initial residual = 0, Final residual = 0, No Iterations 0
time step continuity errors : sum local = 1.54119e-05, global = -4.81984e-15, cumulative = 1.13166e-12
DILUPBiCGStab:  Solving for omega, Initial residual = 0.00168589, Final residual = 1.83958e-09, No Iterations 1
DILUPBiCGStab:  Solving for k, Initial residual = 0.0113325, Final residual = 3.55185e-10, No Iterations 2
bounding k, min: -0.235034 max: 8.19751 average: 0.000464043
ExecutionTime = 43.5 s  ClockTime = 44 s

Courant Number mean: 0.00272676 max: 0.511164
deltaT = 0.000989983
Time = 0.0496167

diagonal:  Solving for rho, Initial residual = 0, Final residual = 0, No Iterations 0
PIMPLE: iteration 1
DILUPBiCGStab:  Solving for h, Initial residual = 0.00754082, Final residual = 2.24479e-11, No Iterations 1
DICPCG:  Solving for p_rgh, Initial residual = 0.0113108, Final residual = 0.000107083, No Iterations 63
diagonal:  Solving for rho, Initial residual = 0, Final residual = 0, No Iterations 0
time step continuity errors : sum local = 1.82131e-05, global = 1.60508e-14, cumulative = 1.14771e-12
DICPCG:  Solving for p_rgh, Initial residual = 0.000491577, Final residual = 9.74027e-08, No Iterations 151
diagonal:  Solving for rho, Initial residual = 0, Final residual = 0, No Iterations 0
time step continuity errors : sum local = 1.54347e-05, global = -3.90781e-15, cumulative = 1.1438e-12
DILUPBiCGStab:  Solving for omega, Initial residual = 0.00160424, Final residual = 1.84978e-09, No Iterations 1
DILUPBiCGStab:  Solving for k, Initial residual = 0.0140351, Final residual = 9.53271e-10, No Iterations 2
bounding k, min: -0.0488022 max: 8.25474 average: 0.000463643
ExecutionTime = 44.47 s  ClockTime = 45 s

Courant Number mean: 0.00281472 max: 0.512697
deltaT = 0.000965837
Time = 0.0505825

diagonal:  Solving for rho, Initial residual = 0, Final residual = 0, No Iterations 0
PIMPLE: iteration 1
DILUPBiCGStab:  Solving for h, Initial residual = 0.00716065, Final residual = 2.075e-11, No Iterations 1
DICPCG:  Solving for p_rgh, Initial residual = 0.0108542, Final residual = 9.50068e-05, No Iterations 65
diagonal:  Solving for rho, Initial residual = 0, Final residual = 0, No Iterations 0
time step continuity errors : sum local = 1.79048e-05, global = -3.9516e-15, cumulative = 1.13985e-12
DICPCG:  Solving for p_rgh, Initial residual = 0.000500172, Final residual = 9.78666e-08, No Iterations 143
diagonal:  Solving for rho, Initial residual = 0, Final residual = 0, No Iterations 0
time step continuity errors : sum local = 1.53505e-05, global = -7.395e-16, cumulative = 1.13911e-12
DILUPBiCGStab:  Solving for omega, Initial residual = 0.00152459, Final residual = 2.074e-09, No Iterations 1
DILUPBiCGStab:  Solving for k, Initial residual = 0.014249, Final residual = 1.21053e-09, No Iterations 2
bounding k, min: -0.239709 max: 8.35292 average: 0.000461451
ExecutionTime = 45.43 s  ClockTime = 46 s

Courant Number mean: 0.00290488 max: 0.51052
deltaT = 0.000945635
Time = 0.0515281

diagonal:  Solving for rho, Initial residual = 0, Final residual = 0, No Iterations 0
PIMPLE: iteration 1
DILUPBiCGStab:  Solving for h, Initial residual = 0.00683125, Final residual = 2.72022e-11, No Iterations 1
DICPCG:  Solving for p_rgh, Initial residual = 0.0104497, Final residual = 9.68238e-05, No Iterations 65
diagonal:  Solving for rho, Initial residual = 0, Final residual = 0, No Iterations 0
time step continuity errors : sum local = 1.77454e-05, global = 6.11263e-15, cumulative = 1.14522e-12
DICPCG:  Solving for p_rgh, Initial residual = 0.000509431, Final residual = 9.42454e-08, No Iterations 139
diagonal:  Solving for rho, Initial residual = 0, Final residual = 0, No Iterations 0
time step continuity errors : sum local = 1.5207e-05, global = -7.81818e-15, cumulative = 1.1374e-12
DILUPBiCGStab:  Solving for omega, Initial residual = 0.00145527, Final residual = 2.26658e-09, No Iterations 1
DILUPBiCGStab:  Solving for k, Initial residual = 0.0136075, Final residual = 9.2073e-10, No Iterations 2
bounding k, min: -0.0495718 max: 8.46279 average: 0.000464305
ExecutionTime = 46.38 s  ClockTime = 47 s

Courant Number mean: 0.00297412 max: 0.506484
deltaT = 0.000933535
Time = 0.0524617

diagonal:  Solving for rho, Initial residual = 0, Final residual = 0, No Iterations 0
PIMPLE: iteration 1
DILUPBiCGStab:  Solving for h, Initial residual = 0.0065771, Final residual = 1.66669e-11, No Iterations 1
DICPCG:  Solving for p_rgh, Initial residual = 0.0100905, Final residual = 9.74235e-05, No Iterations 65
diagonal:  Solving for rho, Initial residual = 0, Final residual = 0, No Iterations 0
time step continuity errors : sum local = 1.76184e-05, global = -1.66877e-15, cumulative = 1.13573e-12
DICPCG:  Solving for p_rgh, Initial residual = 0.000511587, Final residual = 9.37185e-08, No Iterations 134
diagonal:  Solving for rho, Initial residual = 0, Final residual = 0, No Iterations 0
time step continuity errors : sum local = 1.5072e-05, global = 4.05094e-15, cumulative = 1.13979e-12
DILUPBiCGStab:  Solving for omega, Initial residual = 0.00140157, Final residual = 2.36239e-09, No Iterations 1
DILUPBiCGStab:  Solving for k, Initial residual = 0.0117265, Final residual = 6.29899e-10, No Iterations 2
bounding k, min: -0.224127 max: 8.5473 average: 0.000461009
ExecutionTime = 47.3 s  ClockTime = 48 s

Courant Number mean: 0.0030172 max: 0.502202
deltaT = 0.000929871
Time = 0.0533915

diagonal:  Solving for rho, Initial residual = 0, Final residual = 0, No Iterations 0
PIMPLE: iteration 1
DILUPBiCGStab:  Solving for h, Initial residual = 0.00639357, Final residual = 2.95242e-11, No Iterations 1
DICPCG:  Solving for p_rgh, Initial residual = 0.00976303, Final residual = 9.74342e-05, No Iterations 65
diagonal:  Solving for rho, Initial residual = 0, Final residual = 0, No Iterations 0
time step continuity errors : sum local = 1.75284e-05, global = 8.39895e-15, cumulative = 1.14818e-12
DICPCG:  Solving for p_rgh, Initial residual = 0.000506238, Final residual = 9.69244e-08, No Iterations 132
diagonal:  Solving for rho, Initial residual = 0, Final residual = 0, No Iterations 0
time step continuity errors : sum local = 1.49811e-05, global = 7.33174e-15, cumulative = 1.15552e-12
DILUPBiCGStab:  Solving for omega, Initial residual = 0.00136229, Final residual = 2.36049e-09, No Iterations 1
DILUPBiCGStab:  Solving for k, Initial residual = 0.0105292, Final residual = 3.32381e-10, No Iterations 2
bounding k, min: -0.0437543 max: 8.60165 average: 0.000463487
ExecutionTime = 48.22 s  ClockTime = 49 s

Courant Number mean: 0.00302909 max: 0.499787
deltaT = 0.000929871
Time = 0.0543214

diagonal:  Solving for rho, Initial residual = 0, Final residual = 0, No Iterations 0
PIMPLE: iteration 1
DILUPBiCGStab:  Solving for h, Initial residual = 0.00624258, Final residual = 1.91369e-11, No Iterations 1
DICPCG:  Solving for p_rgh, Initial residual = 0.00945552, Final residual = 8.15959e-05, No Iterations 67
diagonal:  Solving for rho, Initial residual = 0, Final residual = 0, No Iterations 0
time step continuity errors : sum local = 1.72641e-05, global = -6.86295e-15, cumulative = 1.14865e-12
DICPCG:  Solving for p_rgh, Initial residual = 0.000492321, Final residual = 9.28001e-08, No Iterations 133
diagonal:  Solving for rho, Initial residual = 0, Final residual = 0, No Iterations 0
time step continuity errors : sum local = 1.48559e-05, global = 1.2709e-14, cumulative = 1.16136e-12
DILUPBiCGStab:  Solving for omega, Initial residual = 0.00132983, Final residual = 2.2432e-09, No Iterations 1
DILUPBiCGStab:  Solving for k, Initial residual = 0.00877264, Final residual = 1.86378e-10, No Iterations 2
bounding k, min: -0.213689 max: 8.60434 average: 0.000460372
ExecutionTime = 49.17 s  ClockTime = 50 s

Courant Number mean: 0.00299567 max: 0.49576
deltaT = 0.000938173
Time = 0.0552596

diagonal:  Solving for rho, Initial residual = 0, Final residual = 0, No Iterations 0
PIMPLE: iteration 1
DILUPBiCGStab:  Solving for h, Initial residual = 0.00615157, Final residual = 2.12127e-11, No Iterations 1
DICPCG:  Solving for p_rgh, Initial residual = 0.00916402, Final residual = 8.05191e-05, No Iterations 67
diagonal:  Solving for rho, Initial residual = 0, Final residual = 0, No Iterations 0
time step continuity errors : sum local = 1.72233e-05, global = -9.70174e-15, cumulative = 1.15166e-12
DICPCG:  Solving for p_rgh, Initial residual = 0.000477077, Final residual = 9.77673e-08, No Iterations 132
diagonal:  Solving for rho, Initial residual = 0, Final residual = 0, No Iterations 0
time step continuity errors : sum local = 1.48001e-05, global = -2.00456e-14, cumulative = 1.13161e-12
DILUPBiCGStab:  Solving for omega, Initial residual = 0.00130953, Final residual = 2.07076e-09, No Iterations 1
DILUPBiCGStab:  Solving for k, Initial residual = 0.00992531, Final residual = 2.47554e-10, No Iterations 2
bounding k, min: -0.0451871 max: 8.5624 average: 0.000460912
ExecutionTime = 50.1 s  ClockTime = 51 s

Courant Number mean: 0.00294046 max: 0.494187
deltaT = 0.000949488
Time = 0.0562091

diagonal:  Solving for rho, Initial residual = 0, Final residual = 0, No Iterations 0
PIMPLE: iteration 1
DILUPBiCGStab:  Solving for h, Initial residual = 0.00608155, Final residual = 1.89401e-11, No Iterations 1
DICPCG:  Solving for p_rgh, Initial residual = 0.00888244, Final residual = 7.80287e-05, No Iterations 67
diagonal:  Solving for rho, Initial residual = 0, Final residual = 0, No Iterations 0
time step continuity errors : sum local = 1.71601e-05, global = -3.17292e-15, cumulative = 1.12844e-12
DICPCG:  Solving for p_rgh, Initial residual = 0.000458755, Final residual = 9.92779e-08, No Iterations 132
diagonal:  Solving for rho, Initial residual = 0, Final residual = 0, No Iterations 0
time step continuity errors : sum local = 1.4736e-05, global = 9.20189e-15, cumulative = 1.13764e-12
DILUPBiCGStab:  Solving for omega, Initial residual = 0.00129364, Final residual = 1.84475e-09, No Iterations 1
DILUPBiCGStab:  Solving for k, Initial residual = 0.0111105, Final residual = 5.43246e-10, No Iterations 2
bounding k, min: -0.191456 max: 8.46977 average: 0.000458506
ExecutionTime = 51.03 s  ClockTime = 52 s

Courant Number mean: 0.00286147 max: 0.492206
deltaT = 0.000964036
Time = 0.0571731

diagonal:  Solving for rho, Initial residual = 0, Final residual = 0, No Iterations 0
PIMPLE: iteration 1
DILUPBiCGStab:  Solving for h, Initial residual = 0.00603207, Final residual = 2.2475e-11, No Iterations 1
DICPCG:  Solving for p_rgh, Initial residual = 0.00861029, Final residual = 7.48666e-05, No Iterations 67
diagonal:  Solving for rho, Initial residual = 0, Final residual = 0, No Iterations 0
time step continuity errors : sum local = 1.71088e-05, global = -1.35234e-14, cumulative = 1.12412e-12
DICPCG:  Solving for p_rgh, Initial residual = 0.000439377, Final residual = 9.78679e-08, No Iterations 133
diagonal:  Solving for rho, Initial residual = 0, Final residual = 0, No Iterations 0
time step continuity errors : sum local = 1.46832e-05, global = -8.2298e-16, cumulative = 1.1233e-12
DILUPBiCGStab:  Solving for omega, Initial residual = 0.00128178, Final residual = 1.61872e-09, No Iterations 1
DILUPBiCGStab:  Solving for k, Initial residual = 0.0122632, Final residual = 6.90219e-10, No Iterations 2
bounding k, min: -0.0425533 max: 8.33876 average: 0.00045828
ExecutionTime = 52.07 s  ClockTime = 53 s

Courant Number mean: 0.00277967 max: 0.49081
deltaT = 0.000982111
Time = 0.0581552

diagonal:  Solving for rho, Initial residual = 0, Final residual = 0, No Iterations 0
PIMPLE: iteration 1
DILUPBiCGStab:  Solving for h, Initial residual = 0.00600309, Final residual = 1.56378e-11, No Iterations 1
DICPCG:  Solving for p_rgh, Initial residual = 0.00834638, Final residual = 8.29438e-05, No Iterations 65
diagonal:  Solving for rho, Initial residual = 0, Final residual = 0, No Iterations 0
time step continuity errors : sum local = 1.72618e-05, global = -2.28535e-16, cumulative = 1.12307e-12
DICPCG:  Solving for p_rgh, Initial residual = 0.000423434, Final residual = 9.81027e-08, No Iterations 134
diagonal:  Solving for rho, Initial residual = 0, Final residual = 0, No Iterations 0
time step continuity errors : sum local = 1.46864e-05, global = 3.89616e-15, cumulative = 1.12696e-12
DILUPBiCGStab:  Solving for omega, Initial residual = 0.00127418, Final residual = 1.45938e-09, No Iterations 1
DILUPBiCGStab:  Solving for k, Initial residual = 0.0126706, Final residual = 8.58822e-10, No Iterations 2
bounding k, min: -0.164387 max: 8.17687 average: 0.000452783
ExecutionTime = 53.16 s  ClockTime = 54 s

Courant Number mean: 0.0027179 max: 0.490847
deltaT = 0.0010009
Time = 0.0591561

diagonal:  Solving for rho, Initial residual = 0, Final residual = 0, No Iterations 0
PIMPLE: iteration 1
DILUPBiCGStab:  Solving for h, Initial residual = 0.00597601, Final residual = 2.13099e-11, No Iterations 1
DICPCG:  Solving for p_rgh, Initial residual = 0.00808751, Final residual = 8.00356e-05, No Iterations 65
diagonal:  Solving for rho, Initial residual = 0, Final residual = 0, No Iterations 0
time step continuity errors : sum local = 1.7338e-05, global = -1.14595e-14, cumulative = 1.11551e-12
DICPCG:  Solving for p_rgh, Initial residual = 0.000406476, Final residual = 9.92111e-08, No Iterations 139
diagonal:  Solving for rho, Initial residual = 0, Final residual = 0, No Iterations 0
time step continuity errors : sum local = 1.4766e-05, global = -1.1971e-14, cumulative = 1.10353e-12
DILUPBiCGStab:  Solving for omega, Initial residual = 0.00126684, Final residual = 1.39785e-09, No Iterations 1
DILUPBiCGStab:  Solving for k, Initial residual = 0.0125373, Final residual = 7.78122e-10, No Iterations 2
bounding k, min: -0.0378776 max: 8.01631 average: 0.000452907
ExecutionTime = 54.11 s  ClockTime = 55 s

Courant Number mean: 0.00268832 max: 0.493962
deltaT = 0.00101275
Time = 0.0601689

diagonal:  Solving for rho, Initial residual = 0, Final residual = 0, No Iterations 0
PIMPLE: iteration 1
DILUPBiCGStab:  Solving for h, Initial residual = 0.00590621, Final residual = 1.54367e-11, No Iterations 1
DICPCG:  Solving for p_rgh, Initial residual = 0.00782751, Final residual = 7.81234e-05, No Iterations 65
diagonal:  Solving for rho, Initial residual = 0, Final residual = 0, No Iterations 0
time step continuity errors : sum local = 1.74102e-05, global = 1.59946e-15, cumulative = 1.10513e-12
DICPCG:  Solving for p_rgh, Initial residual = 0.000395933, Final residual = 9.82799e-08, No Iterations 143
diagonal:  Solving for rho, Initial residual = 0, Final residual = 0, No Iterations 0
time step continuity errors : sum local = 1.48304e-05, global = -1.03559e-16, cumulative = 1.10503e-12
DILUPBiCGStab:  Solving for omega, Initial residual = 0.00125088, Final residual = 1.37888e-09, No Iterations 1
DILUPBiCGStab:  Solving for k, Initial residual = 0.0118944, Final residual = 8.22691e-10, No Iterations 2
bounding k, min: -0.162756 max: 7.8721 average: 0.000448433
ExecutionTime = 55.09 s  ClockTime = 56 s

Courant Number mean: 0.00268259 max: 0.496245
deltaT = 0.00102045
Time = 0.0611893

diagonal:  Solving for rho, Initial residual = 0, Final residual = 0, No Iterations 0
PIMPLE: iteration 1
DILUPBiCGStab:  Solving for h, Initial residual = 0.00581333, Final residual = 1.50757e-11, No Iterations 1
DICPCG:  Solving for p_rgh, Initial residual = 0.00757355, Final residual = 6.87923e-05, No Iterations 67
diagonal:  Solving for rho, Initial residual = 0, Final residual = 0, No Iterations 0
time step continuity errors : sum local = 1.74211e-05, global = 1.29408e-14, cumulative = 1.11797e-12
DICPCG:  Solving for p_rgh, Initial residual = 0.0003879, Final residual = 9.99216e-08, No Iterations 151
diagonal:  Solving for rho, Initial residual = 0, Final residual = 0, No Iterations 0
time step continuity errors : sum local = 1.49474e-05, global = 5.26841e-15, cumulative = 1.12324e-12
DILUPBiCGStab:  Solving for omega, Initial residual = 0.0012301, Final residual = 1.39216e-09, No Iterations 1
DILUPBiCGStab:  Solving for k, Initial residual = 0.0113616, Final residual = 5.08149e-10, No Iterations 2
bounding k, min: -0.0438089 max: 7.76915 average: 0.000446302
ExecutionTime = 56.06 s  ClockTime = 57 s

Courant Number mean: 0.00271039 max: 0.50056
deltaT = 0.00101934
Time = 0.0622087

diagonal:  Solving for rho, Initial residual = 0, Final residual = 0, No Iterations 0
PIMPLE: iteration 1
DILUPBiCGStab:  Solving for h, Initial residual = 0.0056738, Final residual = 1.42242e-11, No Iterations 1
DICPCG:  Solving for p_rgh, Initial residual = 0.00732461, Final residual = 7.0056e-05, No Iterations 67
diagonal:  Solving for rho, Initial residual = 0, Final residual = 0, No Iterations 0
time step continuity errors : sum local = 1.75158e-05, global = -3.93134e-15, cumulative = 1.11931e-12
DICPCG:  Solving for p_rgh, Initial residual = 0.000388061, Final residual = 9.65803e-08, No Iterations 151
diagonal:  Solving for rho, Initial residual = 0, Final residual = 0, No Iterations 0
time step continuity errors : sum local = 1.50294e-05, global = 1.25708e-14, cumulative = 1.13188e-12
DILUPBiCGStab:  Solving for omega, Initial residual = 0.00120002, Final residual = 1.42413e-09, No Iterations 1
DILUPBiCGStab:  Solving for k, Initial residual = 0.0104196, Final residual = 2.83317e-10, No Iterations 2
bounding k, min: -0.15557 max: 7.71057 average: 0.000443088
ExecutionTime = 57.02 s  ClockTime = 58 s

Courant Number mean: 0.00275184 max: 0.503653
deltaT = 0.00101164
Time = 0.0632203

diagonal:  Solving for rho, Initial residual = 0, Final residual = 0, No Iterations 0
PIMPLE: iteration 1
DILUPBiCGStab:  Solving for h, Initial residual = 0.00550391, Final residual = 1.74184e-11, No Iterations 1
DICPCG:  Solving for p_rgh, Initial residual = 0.00708634, Final residual = 6.31433e-05, No Iterations 69
diagonal:  Solving for rho, Initial residual = 0, Final residual = 0, No Iterations 0
[...]
DILUPBiCGStab:  Solving for k, Initial residual = 0.000663807, Final residual = 3.29532e-09, No Iterations 1
bounding k, min: -0.0103226 max: 1.36884 average: 0.007874
ExecutionTime = 2916.13 s  ClockTime = 3009 s

Courant Number mean: 0.0297703 max: 0.499523
deltaT = 0.00220886
Time = 4.65542

diagonal:  Solving for rho, Initial residual = 0, Final residual = 0, No Iterations 0
PIMPLE: iteration 1
DILUPBiCGStab:  Solving for h, Initial residual = 0.000417933, Final residual = 7.89216e-10, No Iterations 1
DICPCG:  Solving for p_rgh, Initial residual = 0.000831979, Final residual = 8.14313e-06, No Iterations 123
diagonal:  Solving for rho, Initial residual = 0, Final residual = 0, No Iterations 0
time step continuity errors : sum local = 1.9562e-05, global = -1.2928e-14, cumulative = 1.85931e-12
DICPCG:  Solving for p_rgh, Initial residual = 0.000114969, Final residual = 9.71376e-08, No Iterations 192
diagonal:  Solving for rho, Initial residual = 0, Final residual = 0, No Iterations 0
time step continuity errors : sum local = 1.64125e-05, global = -7.15204e-15, cumulative = 1.85215e-12
DILUPBiCGStab:  Solving for omega, Initial residual = 7.1044e-05, Final residual = 3.10327e-11, No Iterations 1
DILUPBiCGStab:  Solving for k, Initial residual = 0.00066923, Final residual = 3.36733e-09, No Iterations 1
bounding k, min: -8.11074e-06 max: 1.37212 average: 0.00787159
ExecutionTime = 2917.32 s  ClockTime = 3010 s

Courant Number mean: 0.0297815 max: 0.500089
deltaT = 0.00220886
Time = 4.65763

diagonal:  Solving for rho, Initial residual = 0, Final residual = 0, No Iterations 0
PIMPLE: iteration 1
DILUPBiCGStab:  Solving for h, Initial residual = 0.000418644, Final residual = 7.90367e-10, No Iterations 1
DICPCG:  Solving for p_rgh, Initial residual = 0.00083189, Final residual = 8.1826e-06, No Iterations 123
diagonal:  Solving for rho, Initial residual = 0, Final residual = 0, No Iterations 0
time step continuity errors : sum local = 1.96072e-05, global = -1.76646e-14, cumulative = 1.83449e-12
DICPCG:  Solving for p_rgh, Initial residual = 0.000115187, Final residual = 9.8029e-08, No Iterations 192
diagonal:  Solving for rho, Initial residual = 0, Final residual = 0, No Iterations 0
time step continuity errors : sum local = 1.64326e-05, global = 1.06987e-14, cumulative = 1.84519e-12
DILUPBiCGStab:  Solving for omega, Initial residual = 7.12352e-05, Final residual = 3.10911e-11, No Iterations 1
DILUPBiCGStab:  Solving for k, Initial residual = 0.000658341, Final residual = 3.27991e-09, No Iterations 1
bounding k, min: -0.00972561 max: 1.37517 average: 0.00786812
ExecutionTime = 2918.46 s  ClockTime = 3011 s

Courant Number mean: 0.0297928 max: 0.500571
deltaT = 0.00220886
Time = 4.65984

diagonal:  Solving for rho, Initial residual = 0, Final residual = 0, No Iterations 0
PIMPLE: iteration 1
DILUPBiCGStab:  Solving for h, Initial residual = 0.00041936, Final residual = 7.9136e-10, No Iterations 1
DICPCG:  Solving for p_rgh, Initial residual = 0.000831666, Final residual = 8.15829e-06, No Iterations 123
diagonal:  Solving for rho, Initial residual = 0, Final residual = 0, No Iterations 0
time step continuity errors : sum local = 1.96278e-05, global = -2.52446e-15, cumulative = 1.84266e-12
DICPCG:  Solving for p_rgh, Initial residual = 0.000115177, Final residual = 9.73971e-08, No Iterations 192
diagonal:  Solving for rho, Initial residual = 0, Final residual = 0, No Iterations 0
time step continuity errors : sum local = 1.64712e-05, global = -2.94433e-14, cumulative = 1.81322e-12
DILUPBiCGStab:  Solving for omega, Initial residual = 7.13892e-05, Final residual = 3.11509e-11, No Iterations 1
DILUPBiCGStab:  Solving for k, Initial residual = 0.000669044, Final residual = 3.35898e-09, No Iterations 1
bounding k, min: -0.00662135 max: 1.37923 average: 0.00786586
ExecutionTime = 2919.6 s  ClockTime = 3012 s

Courant Number mean: 0.0298046 max: 0.501775
deltaT = 0.00219461
Time = 4.66203

diagonal:  Solving for rho, Initial residual = 0, Final residual = 0, No Iterations 0
PIMPLE: iteration 1
DILUPBiCGStab:  Solving for h, Initial residual = 0.000417374, Final residual = 7.68981e-10, No Iterations 1
DICPCG:  Solving for p_rgh, Initial residual = 0.000828173, Final residual = 8.0624e-06, No Iterations 123
diagonal:  Solving for rho, Initial residual = 0, Final residual = 0, No Iterations 0
time step continuity errors : sum local = 1.95079e-05, global = 2.12938e-14, cumulative = 1.83451e-12
DICPCG:  Solving for p_rgh, Initial residual = 0.000115807, Final residual = 9.56394e-08, No Iterations 192
diagonal:  Solving for rho, Initial residual = 0, Final residual = 0, No Iterations 0
time step continuity errors : sum local = 1.63721e-05, global = 2.5448e-14, cumulative = 1.85996e-12
DILUPBiCGStab:  Solving for omega, Initial residual = 7.11108e-05, Final residual = 3.0282e-11, No Iterations 1
DILUPBiCGStab:  Solving for k, Initial residual = 0.000656893, Final residual = 3.20846e-09, No Iterations 1
bounding k, min: -0.0112932 max: 1.38243 average: 0.00786289
ExecutionTime = 2920.89 s  ClockTime = 3014 s

Courant Number mean: 0.029624 max: 0.498649
deltaT = 0.00219461
Time = 4.66422

diagonal:  Solving for rho, Initial residual = 0, Final residual = 0, No Iterations 0
PIMPLE: iteration 1
DILUPBiCGStab:  Solving for h, Initial residual = 0.000418106, Final residual = 7.702e-10, No Iterations 1
DICPCG:  Solving for p_rgh, Initial residual = 0.000827929, Final residual = 8.05391e-06, No Iterations 123
diagonal:  Solving for rho, Initial residual = 0, Final residual = 0, No Iterations 0
time step continuity errors : sum local = 1.95216e-05, global = -1.0814e-14, cumulative = 1.84915e-12
DICPCG:  Solving for p_rgh, Initial residual = 0.000115839, Final residual = 9.60301e-08, No Iterations 192
diagonal:  Solving for rho, Initial residual = 0, Final residual = 0, No Iterations 0
time step continuity errors : sum local = 1.6374e-05, global = -1.45314e-14, cumulative = 1.83462e-12
DILUPBiCGStab:  Solving for omega, Initial residual = 7.12997e-05, Final residual = 3.03448e-11, No Iterations 1
DILUPBiCGStab:  Solving for k, Initial residual = 0.000657105, Final residual = 3.31966e-09, No Iterations 1
bounding k, min: -0.00201695 max: 1.38519 average: 0.0078602
ExecutionTime = 2922.1 s  ClockTime = 3015 s

Courant Number mean: 0.0296357 max: 0.498656
deltaT = 0.00219461
Time = 4.66642

diagonal:  Solving for rho, Initial residual = 0, Final residual = 0, No Iterations 0
PIMPLE: iteration 1
DILUPBiCGStab:  Solving for h, Initial residual = 0.000418857, Final residual = 7.70909e-10, No Iterations 1
DICPCG:  Solving for p_rgh, Initial residual = 0.00082756, Final residual = 8.01574e-06, No Iterations 123
diagonal:  Solving for rho, Initial residual = 0, Final residual = 0, No Iterations 0
time step continuity errors : sum local = 1.9522e-05, global = -3.01211e-15, cumulative = 1.83161e-12
DICPCG:  Solving for p_rgh, Initial residual = 0.000115672, Final residual = 9.54773e-08, No Iterations 192
diagonal:  Solving for rho, Initial residual = 0, Final residual = 0, No Iterations 0
time step continuity errors : sum local = 1.63916e-05, global = 2.35998e-15, cumulative = 1.83397e-12
DILUPBiCGStab:  Solving for omega, Initial residual = 7.14894e-05, Final residual = 3.04093e-11, No Iterations 1
DILUPBiCGStab:  Solving for k, Initial residual = 0.000655169, Final residual = 3.25123e-09, No Iterations 1
bounding k, min: -0.0104771 max: 1.38787 average: 0.00785748
ExecutionTime = 2923.32 s  ClockTime = 3016 s

Courant Number mean: 0.0296479 max: 0.499158
deltaT = 0.00219461
Time = 4.66861

diagonal:  Solving for rho, Initial residual = 0, Final residual = 0, No Iterations 0
PIMPLE: iteration 1
DILUPBiCGStab:  Solving for h, Initial residual = 0.000419589, Final residual = 7.71545e-10, No Iterations 1
DICPCG:  Solving for p_rgh, Initial residual = 0.000827309, Final residual = 8.04816e-06, No Iterations 123
diagonal:  Solving for rho, Initial residual = 0, Final residual = 0, No Iterations 0
time step continuity errors : sum local = 1.95551e-05, global = 1.70849e-15, cumulative = 1.83567e-12
DICPCG:  Solving for p_rgh, Initial residual = 0.000115932, Final residual = 9.5606e-08, No Iterations 192
diagonal:  Solving for rho, Initial residual = 0, Final residual = 0, No Iterations 0
time step continuity errors : sum local = 1.64192e-05, global = -1.5561e-16, cumulative = 1.83552e-12
DILUPBiCGStab:  Solving for omega, Initial residual = 7.16768e-05, Final residual = 3.04738e-11, No Iterations 1
DILUPBiCGStab:  Solving for k, Initial residual = 0.000661419, Final residual = 3.31439e-09, No Iterations 1
bounding k, min: -1.06538e-05 max: 1.39125 average: 0.0078553
ExecutionTime = 2924.56 s  ClockTime = 3018 s

Courant Number mean: 0.0296602 max: 0.500007
deltaT = 0.00219461
Time = 4.67081

diagonal:  Solving for rho, Initial residual = 0, Final residual = 0, No Iterations 0
PIMPLE: iteration 1
DILUPBiCGStab:  Solving for h, Initial residual = 0.000420325, Final residual = 7.72337e-10, No Iterations 1
DICPCG:  Solving for p_rgh, Initial residual = 0.000826644, Final residual = 8.09577e-06, No Iterations 123
diagonal:  Solving for rho, Initial residual = 0, Final residual = 0, No Iterations 0
time step continuity errors : sum local = 1.96107e-05, global = -5.47736e-15, cumulative = 1.83004e-12
DICPCG:  Solving for p_rgh, Initial residual = 0.000116217, Final residual = 9.65397e-08, No Iterations 192
diagonal:  Solving for rho, Initial residual = 0, Final residual = 0, No Iterations 0
time step continuity errors : sum local = 1.64481e-05, global = -1.57136e-15, cumulative = 1.82847e-12
DILUPBiCGStab:  Solving for omega, Initial residual = 7.18371e-05, Final residual = 3.05362e-11, No Iterations 1
DILUPBiCGStab:  Solving for k, Initial residual = 0.000650987, Final residual = 3.22199e-09, No Iterations 1
bounding k, min: -0.0099704 max: 1.39469 average: 0.00785204
ExecutionTime = 2925.82 s  ClockTime = 3019 s

Courant Number mean: 0.0296726 max: 0.500749
deltaT = 0.00219461
Time = 4.673

diagonal:  Solving for rho, Initial residual = 0, Final residual = 0, No Iterations 0
PIMPLE: iteration 1
DILUPBiCGStab:  Solving for h, Initial residual = 0.000421049, Final residual = 7.72838e-10, No Iterations 1
DICPCG:  Solving for p_rgh, Initial residual = 0.000826271, Final residual = 8.07457e-06, No Iterations 123
diagonal:  Solving for rho, Initial residual = 0, Final residual = 0, No Iterations 0
time step continuity errors : sum local = 1.96386e-05, global = 9.06278e-15, cumulative = 1.83753e-12
DICPCG:  Solving for p_rgh, Initial residual = 0.00011624, Final residual = 9.59695e-08, No Iterations 192
diagonal:  Solving for rho, Initial residual = 0, Final residual = 0, No Iterations 0
time step continuity errors : sum local = 1.64928e-05, global = 3.76045e-15, cumulative = 1.84129e-12
DILUPBiCGStab:  Solving for omega, Initial residual = 7.19859e-05, Final residual = 3.05884e-11, No Iterations 1
DILUPBiCGStab:  Solving for k, Initial residual = 0.000662304, Final residual = 3.30913e-09, No Iterations 1
bounding k, min: -0.00682163 max: 1.39925 average: 0.00785
ExecutionTime = 2927.06 s  ClockTime = 3020 s

Courant Number mean: 0.0296852 max: 0.502135
deltaT = 0.00217998
Time = 4.67518

diagonal:  Solving for rho, Initial residual = 0, Final residual = 0, No Iterations 0
PIMPLE: iteration 1
DILUPBiCGStab:  Solving for h, Initial residual = 0.000418939, Final residual = 7.49635e-10, No Iterations 1
DICPCG:  Solving for p_rgh, Initial residual = 0.000823139, Final residual = 7.9746e-06, No Iterations 123
diagonal:  Solving for rho, Initial residual = 0, Final residual = 0, No Iterations 0
time step continuity errors : sum local = 1.95147e-05, global = 4.82723e-15, cumulative = 1.84612e-12
DICPCG:  Solving for p_rgh, Initial residual = 0.000116788, Final residual = 9.40778e-08, No Iterations 192
diagonal:  Solving for rho, Initial residual = 0, Final residual = 0, No Iterations 0
time step continuity errors : sum local = 1.63923e-05, global = 5.82834e-16, cumulative = 1.8467e-12
DILUPBiCGStab:  Solving for omega, Initial residual = 7.16839e-05, Final residual = 2.97014e-11, No Iterations 1
DILUPBiCGStab:  Solving for k, Initial residual = 0.000649788, Final residual = 3.15867e-09, No Iterations 1
bounding k, min: -0.0116093 max: 1.40289 average: 0.00784727
ExecutionTime = 2928.35 s  ClockTime = 3021 s

Courant Number mean: 0.0294995 max: 0.498965
deltaT = 0.00217998
Time = 4.67736

diagonal:  Solving for rho, Initial residual = 0, Final residual = 0, No Iterations 0
PIMPLE: iteration 1
DILUPBiCGStab:  Solving for h, Initial residual = 0.000419639, Final residual = 7.50477e-10, No Iterations 1
DICPCG:  Solving for p_rgh, Initial residual = 0.000822704, Final residual = 7.97477e-06, No Iterations 123
diagonal:  Solving for rho, Initial residual = 0, Final residual = 0, No Iterations 0
time step continuity errors : sum local = 1.9528e-05, global = -7.05945e-16, cumulative = 1.846e-12
DICPCG:  Solving for p_rgh, Initial residual = 0.000116862, Final residual = 9.45134e-08, No Iterations 192
diagonal:  Solving for rho, Initial residual = 0, Final residual = 0, No Iterations 0
time step continuity errors : sum local = 1.63921e-05, global = 1.3361e-14, cumulative = 1.85936e-12
DILUPBiCGStab:  Solving for omega, Initial residual = 7.18314e-05, Final residual = 2.97579e-11, No Iterations 1
DILUPBiCGStab:  Solving for k, Initial residual = 0.000650392, Final residual = 3.28387e-09, No Iterations 1
bounding k, min: -0.00207106 max: 1.40589 average: 0.00784478
ExecutionTime = 2929.62 s  ClockTime = 3023 s

Courant Number mean: 0.0295116 max: 0.498914
deltaT = 0.00217998
Time = 4.67954

diagonal:  Solving for rho, Initial residual = 0, Final residual = 0, No Iterations 0
PIMPLE: iteration 1
DILUPBiCGStab:  Solving for h, Initial residual = 0.000420373, Final residual = 7.5101e-10, No Iterations 1
DICPCG:  Solving for p_rgh, Initial residual = 0.0008218, Final residual = 7.92839e-06, No Iterations 123
diagonal:  Solving for rho, Initial residual = 0, Final residual = 0, No Iterations 0
time step continuity errors : sum local = 1.95234e-05, global = -5.46005e-15, cumulative = 1.8539e-12
DICPCG:  Solving for p_rgh, Initial residual = 0.000116686, Final residual = 9.39599e-08, No Iterations 192
diagonal:  Solving for rho, Initial residual = 0, Final residual = 0, No Iterations 0
time step continuity errors : sum local = 1.6405e-05, global = -2.03989e-14, cumulative = 1.8335e-12
DILUPBiCGStab:  Solving for omega, Initial residual = 7.19882e-05, Final residual = 2.98194e-11, No Iterations 1
DILUPBiCGStab:  Solving for k, Initial residual = 0.000648323, Final residual = 3.2231e-09, No Iterations 1
bounding k, min: -0.0107559 max: 1.40858 average: 0.00784226
ExecutionTime = 2930.94 s  ClockTime = 3024 s

Courant Number mean: 0.029524 max: 0.499275
deltaT = 0.00217998
Time = 4.68172

diagonal:  Solving for rho, Initial residual = 0, Final residual = 0, No Iterations 0
PIMPLE: iteration 1
DILUPBiCGStab:  Solving for h, Initial residual = 0.00042112, Final residual = 7.51471e-10, No Iterations 1
DICPCG:  Solving for p_rgh, Initial residual = 0.000820929, Final residual = 7.95451e-06, No Iterations 123
diagonal:  Solving for rho, Initial residual = 0, Final residual = 0, No Iterations 0
time step continuity errors : sum local = 1.95498e-05, global = 1.4096e-14, cumulative = 1.84759e-12
DICPCG:  Solving for p_rgh, Initial residual = 0.000116894, Final residual = 9.40584e-08, No Iterations 192
diagonal:  Solving for rho, Initial residual = 0, Final residual = 0, No Iterations 0
time step continuity errors : sum local = 1.64269e-05, global = 1.2512e-14, cumulative = 1.86011e-12
DILUPBiCGStab:  Solving for omega, Initial residual = 7.21348e-05, Final residual = 2.98755e-11, No Iterations 1
DILUPBiCGStab:  Solving for k, Initial residual = 0.0006544, Final residual = 3.29069e-09, No Iterations 1
bounding k, min: -2.71022e-05 max: 1.41178 average: 0.00784026
ExecutionTime = 2932.25 s  ClockTime = 3025 s

Courant Number mean: 0.0295364 max: 0.499954
deltaT = 0.00217998
Time = 4.6839

diagonal:  Solving for rho, Initial residual = 0, Final residual = 0, No Iterations 0
PIMPLE: iteration 1
DILUPBiCGStab:  Solving for h, Initial residual = 0.000421896, Final residual = 7.52183e-10, No Iterations 1
DICPCG:  Solving for p_rgh, Initial residual = 0.000820236, Final residual = 8.00314e-06, No Iterations 123
diagonal:  Solving for rho, Initial residual = 0, Final residual = 0, No Iterations 0
time step continuity errors : sum local = 1.95991e-05, global = -4.99521e-15, cumulative = 1.85511e-12
DICPCG:  Solving for p_rgh, Initial residual = 0.000117147, Final residual = 9.49454e-08, No Iterations 192
diagonal:  Solving for rho, Initial residual = 0, Final residual = 0, No Iterations 0
time step continuity errors : sum local = 1.64507e-05, global = -8.29952e-15, cumulative = 1.84681e-12
DILUPBiCGStab:  Solving for omega, Initial residual = 7.23027e-05, Final residual = 2.99376e-11, No Iterations 1
DILUPBiCGStab:  Solving for k, Initial residual = 0.000643536, Final residual = 3.19397e-09, No Iterations 1
bounding k, min: -0.0101875 max: 1.41491 average: 0.00783718
ExecutionTime = 2933.47 s  ClockTime = 3027 s

Courant Number mean: 0.0295488 max: 0.500539
deltaT = 0.00217998
Time = 4.68608

diagonal:  Solving for rho, Initial residual = 0, Final residual = 0, No Iterations 0
PIMPLE: iteration 1
DILUPBiCGStab:  Solving for h, Initial residual = 0.000422703, Final residual = 7.52804e-10, No Iterations 1
DICPCG:  Solving for p_rgh, Initial residual = 0.000819836, Final residual = 7.98014e-06, No Iterations 123
diagonal:  Solving for rho, Initial residual = 0, Final residual = 0, No Iterations 0
time step continuity errors : sum local = 1.96229e-05, global = 8.99535e-15, cumulative = 1.85581e-12
DICPCG:  Solving for p_rgh, Initial residual = 0.000117173, Final residual = 9.43532e-08, No Iterations 192
diagonal:  Solving for rho, Initial residual = 0, Final residual = 0, No Iterations 0
time step continuity errors : sum local = 1.64919e-05, global = 3.66559e-15, cumulative = 1.85947e-12
DILUPBiCGStab:  Solving for omega, Initial residual = 7.24798e-05, Final residual = 3.00012e-11, No Iterations 1
DILUPBiCGStab:  Solving for k, Initial residual = 0.000654998, Final residual = 3.28402e-09, No Iterations 1
bounding k, min: -0.00698589 max: 1.41916 average: 0.00783535
ExecutionTime = 2934.72 s  ClockTime = 3028 s

Courant Number mean: 0.0295614 max: 0.501823
deltaT = 0.00216495
Time = 4.68825

diagonal:  Solving for rho, Initial residual = 0, Final residual = 0, No Iterations 0
PIMPLE: iteration 1
DILUPBiCGStab:  Solving for h, Initial residual = 0.000420586, Final residual = 7.29869e-10, No Iterations 1
DICPCG:  Solving for p_rgh, Initial residual = 0.000816657, Final residual = 7.88186e-06, No Iterations 123
diagonal:  Solving for rho, Initial residual = 0, Final residual = 0, No Iterations 0
time step continuity errors : sum local = 1.9493e-05, global = 4.69134e-16, cumulative = 1.85994e-12
DICPCG:  Solving for p_rgh, Initial residual = 0.000117842, Final residual = 9.24745e-08, No Iterations 192
diagonal:  Solving for rho, Initial residual = 0, Final residual = 0, No Iterations 0
time step continuity errors : sum local = 1.63843e-05, global = -2.80431e-15, cumulative = 1.85714e-12
DILUPBiCGStab:  Solving for omega, Initial residual = 7.21797e-05, Final residual = 2.91094e-11, No Iterations 1
DILUPBiCGStab:  Solving for k, Initial residual = 0.000642472, Final residual = 3.13083e-09, No Iterations 1
bounding k, min: -0.0118262 max: 1.42244 average: 0.00783277
ExecutionTime = 2935.96 s  ClockTime = 3029 s

Courant Number mean: 0.0293696 max: 0.498435
deltaT = 0.00216495
Time = 4.69041

diagonal:  Solving for rho, Initial residual = 0, Final residual = 0, No Iterations 0
PIMPLE: iteration 1
DILUPBiCGStab:  Solving for h, Initial residual = 0.000421441, Final residual = 7.3125e-10, No Iterations 1
