/*---------------------------------------------------------------------------*\
| =========                 |                                                 |
| \\      /  F ield         | OpenFOAM: The Open Source CFD Toolbox           |
|  \\    /   O peration     | Version:  v2012                                 |
|   \\  /    A nd           | Website:  www.openfoam.com                      |
|    \\/     M anipulation  |                                                 |
\*---------------------------------------------------------------------------*/
Build  : _7bdb509494-20201222 OPENFOAM=2012
Arch   : "LSB;label=32;scalar=64"
Exec   : buoyantPimpleFoam
Date   : Aug 13 2021
Time   : 14:34:00
Host   : DESKTOP-DOBVM7I
PID    : 1827
I/O    : uncollated
Case   : /mnt/c/Users/TSam/GitHub_OpenFOAM/OpenFoam_heatTrf/buoyantPimpleFoam_timevaryingBC/timevaryingCavityFoam
nProcs : 1
trapFpe: Floating point exception trapping enabled (FOAM_SIGFPE).
fileModificationChecking : Monitoring run-time modified files using timeStampMaster (fileModificationSkew 5, maxFileModificationPolls 20)
allowSystemOperations : Allowing user-supplied system call operations

// * * * * * * * * * * * * * * * * * * * * * * * * * * * * * * * * * * * * * //
Create time

Create mesh for time = 0


PIMPLE: Operating solver in PISO mode

Reading thermophysical properties

Selecting thermodynamics package 
{
    type            heRhoThermo;
    mixture         pureMixture;
    transport       const;
    thermo          hConst;
    equationOfState perfectGas;
    specie          specie;
    energy          sensibleEnthalpy;
}

Reading field U

Reading/calculating face flux field phi

Creating turbulence model

Selecting turbulence model type RAS
Selecting RAS turbulence model kOmegaSST
Selecting patchDistMethod meshWave
RAS
{
    RASModel        kOmegaSST;
    turbulence      on;
    printCoeffs     on;
    alphaK1         0.85;
    alphaK2         1;
    alphaOmega1     0.5;
    alphaOmega2     0.856;
    gamma1          0.555556;
    gamma2          0.44;
    beta1           0.075;
    beta2           0.0828;
    betaStar        0.09;
    a1              0.31;
    b1              1;
    c1              10;
    F3              false;
    decayControl    false;
    kInf            0;
    omegaInf        0;
}


Reading g

Reading hRef
Calculating field g.h

Reading field p_rgh

Creating field dpdt

Creating field kinetic energy K

No MRF models present

Radiation model not active: radiationProperties not found
Selecting radiationModel none
No finite volume options present
Courant Number mean: 0 max: 0

Starting time loop

Courant Number mean: 0 max: 0
deltaT = 0.0120048
Time = 0.0120048

diagonal:  Solving for rho, Initial residual = 0, Final residual = 0, No Iterations 0
PIMPLE: iteration 1
DICPCG:  Solving for p_rgh, Initial residual = 0.0865626, Final residual = 0.00078629, No Iterations 168
diagonal:  Solving for rho, Initial residual = 0, Final residual = 0, No Iterations 0
time step continuity errors : sum local = 2.18479e-05, global = 5.55094e-13, cumulative = 5.55094e-13
DICPCG:  Solving for p_rgh, Initial residual = 0.081842, Final residual = 9.57583e-08, No Iterations 263
diagonal:  Solving for rho, Initial residual = 0, Final residual = 0, No Iterations 0
time step continuity errors : sum local = 3.77232e-05, global = 5.45336e-13, cumulative = 1.10043e-12
ExecutionTime = 2.44 s  ClockTime = 4 s

Courant Number mean: 0.00417312 max: 1.23875
deltaT = 0.00484619
Time = 0.016851

diagonal:  Solving for rho, Initial residual = 0, Final residual = 0, No Iterations 0
PIMPLE: iteration 1
DICPCG:  Solving for p_rgh, Initial residual = 0.119794, Final residual = 0.00114395, No Iterations 176
diagonal:  Solving for rho, Initial residual = 0, Final residual = 0, No Iterations 0
time step continuity errors : sum local = 4.30853e-05, global = 1.1988e-14, cumulative = 1.11242e-12
DICPCG:  Solving for p_rgh, Initial residual = 0.114302, Final residual = 9.37156e-08, No Iterations 280
diagonal:  Solving for rho, Initial residual = 0, Final residual = 0, No Iterations 0
time step continuity errors : sum local = 3.74658e-05, global = 2.66756e-15, cumulative = 1.11509e-12
ExecutionTime = 3.83 s  ClockTime = 6 s

Courant Number mean: 0.00253335 max: 1.29706
deltaT = 0.0018681
Time = 0.0187191

diagonal:  Solving for rho, Initial residual = 0, Final residual = 0, No Iterations 0
PIMPLE: iteration 1
DICPCG:  Solving for p_rgh, Initial residual = 0.415294, Final residual = 0.00412482, No Iterations 122
diagonal:  Solving for rho, Initial residual = 0, Final residual = 0, No Iterations 0
time step continuity errors : sum local = 1.50331e-05, global = 6.92503e-15, cumulative = 1.12201e-12
DICPCG:  Solving for p_rgh, Initial residual = 0.698523, Final residual = 9.96256e-08, No Iterations 252
diagonal:  Solving for rho, Initial residual = 0, Final residual = 0, No Iterations 0
time step continuity errors : sum local = 1.29994e-05, global = 3.66414e-15, cumulative = 1.12567e-12
ExecutionTime = 5.01 s  ClockTime = 7 s

Courant Number mean: 0.000927719 max: 0.456548
deltaT = 0.00204576
Time = 0.0207649

diagonal:  Solving for rho, Initial residual = 0, Final residual = 0, No Iterations 0
PIMPLE: iteration 1
DICPCG:  Solving for p_rgh, Initial residual = 0.612417, Final residual = 0.00602309, No Iterations 138
diagonal:  Solving for rho, Initial residual = 0, Final residual = 0, No Iterations 0
time step continuity errors : sum local = 1.21097e-05, global = -2.64019e-15, cumulative = 1.12303e-12
DICPCG:  Solving for p_rgh, Initial residual = 0.23491, Final residual = 9.61701e-08, No Iterations 246
diagonal:  Solving for rho, Initial residual = 0, Final residual = 0, No Iterations 0
time step continuity errors : sum local = 1.00108e-05, global = 1.88155e-16, cumulative = 1.12322e-12
ExecutionTime = 6.25 s  ClockTime = 8 s

Courant Number mean: 0.000772702 max: 0.355562
deltaT = 0.00233323
Time = 0.0230981

diagonal:  Solving for rho, Initial residual = 0, Final residual = 0, No Iterations 0
PIMPLE: iteration 1
DICPCG:  Solving for p_rgh, Initial residual = 0.146079, Final residual = 0.00142396, No Iterations 138
diagonal:  Solving for rho, Initial residual = 0, Final residual = 0, No Iterations 0
time step continuity errors : sum local = 6.91682e-06, global = -4.45561e-15, cumulative = 1.11877e-12
DICPCG:  Solving for p_rgh, Initial residual = 0.0677574, Final residual = 9.10155e-08, No Iterations 237
diagonal:  Solving for rho, Initial residual = 0, Final residual = 0, No Iterations 0
time step continuity errors : sum local = 5.13557e-06, global = -1.22327e-14, cumulative = 1.10653e-12
ExecutionTime = 7.42 s  ClockTime = 9 s

Courant Number mean: 0.000456144 max: 0.186876
deltaT = 0.00280014
Time = 0.0258982

diagonal:  Solving for rho, Initial residual = 0, Final residual = 0, No Iterations 0
PIMPLE: iteration 1
DICPCG:  Solving for p_rgh, Initial residual = 0.050048, Final residual = 0.000475384, No Iterations 145
diagonal:  Solving for rho, Initial residual = 0, Final residual = 0, No Iterations 0
time step continuity errors : sum local = 5.80645e-07, global = 7.48611e-16, cumulative = 1.10728e-12
DICPCG:  Solving for p_rgh, Initial residual = 0.0361489, Final residual = 9.41011e-08, No Iterations 249
diagonal:  Solving for rho, Initial residual = 0, Final residual = 0, No Iterations 0
time step continuity errors : sum local = 1.78796e-06, global = 4.95934e-15, cumulative = 1.11224e-12
ExecutionTime = 8.64 s  ClockTime = 11 s

Courant Number mean: 0.000314212 max: 0.0543129
deltaT = 0.00336055
Time = 0.0292588

diagonal:  Solving for rho, Initial residual = 0, Final residual = 0, No Iterations 0
PIMPLE: iteration 1
DICPCG:  Solving for p_rgh, Initial residual = 0.0781602, Final residual = 0.000768052, No Iterations 151
diagonal:  Solving for rho, Initial residual = 0, Final residual = 0, No Iterations 0
time step continuity errors : sum local = 1.02242e-05, global = 1.9845e-15, cumulative = 1.11423e-12
DICPCG:  Solving for p_rgh, Initial residual = 0.0591345, Final residual = 8.70901e-08, No Iterations 261
diagonal:  Solving for rho, Initial residual = 0, Final residual = 0, No Iterations 0
time step continuity errors : sum local = 1.00952e-05, global = -1.45145e-15, cumulative = 1.11278e-12
ExecutionTime = 9.97 s  ClockTime = 12 s

Courant Number mean: 0.000736916 max: 0.342186
deltaT = 0.00385119
Time = 0.03311

diagonal:  Solving for rho, Initial residual = 0, Final residual = 0, No Iterations 0
PIMPLE: iteration 1
DICPCG:  Solving for p_rgh, Initial residual = 0.107382, Final residual = 0.00105227, No Iterations 159
diagonal:  Solving for rho, Initial residual = 0, Final residual = 0, No Iterations 0
time step continuity errors : sum local = 1.97523e-05, global = -2.58287e-15, cumulative = 1.11019e-12
DICPCG:  Solving for p_rgh, Initial residual = 0.0816169, Final residual = 9.93357e-08, No Iterations 269
diagonal:  Solving for rho, Initial residual = 0, Final residual = 0, No Iterations 0
time step continuity errors : sum local = 1.73376e-05, global = 6.97951e-15, cumulative = 1.11717e-12
ExecutionTime = 11.32 s  ClockTime = 13 s

Courant Number mean: 0.00115846 max: 0.55162
deltaT = 0.00349103
Time = 0.036601

diagonal:  Solving for rho, Initial residual = 0, Final residual = 0, No Iterations 0
PIMPLE: iteration 1
DICPCG:  Solving for p_rgh, Initial residual = 0.231045, Final residual = 0.00228679, No Iterations 151
diagonal:  Solving for rho, Initial residual = 0, Final residual = 0, No Iterations 0
time step continuity errors : sum local = 1.76814e-05, global = -2.05129e-14, cumulative = 1.09666e-12
DICPCG:  Solving for p_rgh, Initial residual = 0.614388, Final residual = 9.59735e-08, No Iterations 269
diagonal:  Solving for rho, Initial residual = 0, Final residual = 0, No Iterations 0
time step continuity errors : sum local = 1.50284e-05, global = -4.96161e-15, cumulative = 1.0917e-12
ExecutionTime = 12.65 s  ClockTime = 15 s

Courant Number mean: 0.000963776 max: 0.424779
deltaT = 0.00390262
Time = 0.0405036

diagonal:  Solving for rho, Initial residual = 0, Final residual = 0, No Iterations 0
PIMPLE: iteration 1
DICPCG:  Solving for p_rgh, Initial residual = 0.167717, Final residual = 0.00159364, No Iterations 154
diagonal:  Solving for rho, Initial residual = 0, Final residual = 0, No Iterations 0
time step continuity errors : sum local = 1.44396e-05, global = 1.08203e-14, cumulative = 1.10252e-12
DICPCG:  Solving for p_rgh, Initial residual = 0.0775501, Final residual = 8.85252e-08, No Iterations 262
diagonal:  Solving for rho, Initial residual = 0, Final residual = 0, No Iterations 0
time step continuity errors : sum local = 1.1663e-05, global = 1.64597e-15, cumulative = 1.10416e-12
ExecutionTime = 14 s  ClockTime = 16 s

Courant Number mean: 0.000751782 max: 0.255927
deltaT = 0.00466487
Time = 0.0451685

diagonal:  Solving for rho, Initial residual = 0, Final residual = 0, No Iterations 0
PIMPLE: iteration 1
DICPCG:  Solving for p_rgh, Initial residual = 0.0628572, Final residual = 0.000594274, No Iterations 156
diagonal:  Solving for rho, Initial residual = 0, Final residual = 0, No Iterations 0
time step continuity errors : sum local = 6.45638e-06, global = -6.40799e-15, cumulative = 1.09776e-12
DICPCG:  Solving for p_rgh, Initial residual = 0.0262745, Final residual = 8.98135e-08, No Iterations 263
diagonal:  Solving for rho, Initial residual = 0, Final residual = 0, No Iterations 0
time step continuity errors : sum local = 4.09749e-06, global = 5.81051e-15, cumulative = 1.10357e-12
ExecutionTime = 15.32 s  ClockTime = 17 s

Courant Number mean: 0.000710494 max: 0.597288
deltaT = 0.00390539
Time = 0.0490739

diagonal:  Solving for rho, Initial residual = 0, Final residual = 0, No Iterations 0
PIMPLE: iteration 1
DICPCG:  Solving for p_rgh, Initial residual = 0.103943, Final residual = 0.000997665, No Iterations 167
diagonal:  Solving for rho, Initial residual = 0, Final residual = 0, No Iterations 0
time step continuity errors : sum local = 3.54205e-06, global = -1.17897e-14, cumulative = 1.09178e-12
DICPCG:  Solving for p_rgh, Initial residual = 0.0589969, Final residual = 9.84257e-08, No Iterations 270
diagonal:  Solving for rho, Initial residual = 0, Final residual = 0, No Iterations 0
time step continuity errors : sum local = 3.98612e-06, global = -7.42168e-15, cumulative = 1.08435e-12
ExecutionTime = 16.71 s  ClockTime = 19 s

Courant Number mean: 0.000625758 max: 0.753098
deltaT = 0.00259274
Time = 0.0516666

diagonal:  Solving for rho, Initial residual = 0, Final residual = 0, No Iterations 0
PIMPLE: iteration 1
DICPCG:  Solving for p_rgh, Initial residual = 0.182353, Final residual = 0.00170688, No Iterations 141
diagonal:  Solving for rho, Initial residual = 0, Final residual = 0, No Iterations 0
time step continuity errors : sum local = 5.40015e-06, global = 4.53805e-15, cumulative = 1.08889e-12
DICPCG:  Solving for p_rgh, Initial residual = 0.138845, Final residual = 9.41515e-08, No Iterations 254
diagonal:  Solving for rho, Initial residual = 0, Final residual = 0, No Iterations 0
time step continuity errors : sum local = 5.05239e-06, global = 2.03836e-15, cumulative = 1.09093e-12
ExecutionTime = 17.97 s  ClockTime = 20 s

Courant Number mean: 0.000472059 max: 0.535744
deltaT = 0.00241993
Time = 0.0540866

diagonal:  Solving for rho, Initial residual = 0, Final residual = 0, No Iterations 0
PIMPLE: iteration 1
DICPCG:  Solving for p_rgh, Initial residual = 0.206312, Final residual = 0.0019912, No Iterations 131
diagonal:  Solving for rho, Initial residual = 0, Final residual = 0, No Iterations 0
time step continuity errors : sum local = 5.90257e-06, global = -1.15165e-14, cumulative = 1.07941e-12
DICPCG:  Solving for p_rgh, Initial residual = 0.258536, Final residual = 9.00552e-08, No Iterations 257
diagonal:  Solving for rho, Initial residual = 0, Final residual = 0, No Iterations 0
time step continuity errors : sum local = 5.25667e-06, global = -8.69453e-15, cumulative = 1.07072e-12
ExecutionTime = 19.22 s  ClockTime = 21 s

Courant Number mean: 0.000462668 max: 0.464878
deltaT = 0.00260296
Time = 0.0566895

diagonal:  Solving for rho, Initial residual = 0, Final residual = 0, No Iterations 0
PIMPLE: iteration 1
DICPCG:  Solving for p_rgh, Initial residual = 0.4321, Final residual = 0.00404987, No Iterations 127
diagonal:  Solving for rho, Initial residual = 0, Final residual = 0, No Iterations 0
time step continuity errors : sum local = 5.49471e-06, global = 8.31648e-15, cumulative = 1.07904e-12
DICPCG:  Solving for p_rgh, Initial residual = 0.240017, Final residual = 9.40815e-08, No Iterations 260
diagonal:  Solving for rho, Initial residual = 0, Final residual = 0, No Iterations 0
time step continuity errors : sum local = 4.63954e-06, global = 4.74027e-15, cumulative = 1.08378e-12
ExecutionTime = 20.41 s  ClockTime = 22 s

Courant Number mean: 0.000467797 max: 0.418388
deltaT = 0.00291422
Time = 0.0596037

diagonal:  Solving for rho, Initial residual = 0, Final residual = 0, No Iterations 0
PIMPLE: iteration 1
DICPCG:  Solving for p_rgh, Initial residual = 0.184142, Final residual = 0.0017789, No Iterations 153
diagonal:  Solving for rho, Initial residual = 0, Final residual = 0, No Iterations 0
time step continuity errors : sum local = 3.69742e-06, global = -1.03033e-14, cumulative = 1.07347e-12
DICPCG:  Solving for p_rgh, Initial residual = 0.0931999, Final residual = 9.8633e-08, No Iterations 240
diagonal:  Solving for rho, Initial residual = 0, Final residual = 0, No Iterations 0
time step continuity errors : sum local = 2.81187e-06, global = -5.71345e-15, cumulative = 1.06776e-12
ExecutionTime = 21.71 s  ClockTime = 24 s

Courant Number mean: 0.000456004 max: 0.347285
deltaT = 0.00333347
Time = 0.0629372

diagonal:  Solving for rho, Initial residual = 0, Final residual = 0, No Iterations 0
PIMPLE: iteration 1
DICPCG:  Solving for p_rgh, Initial residual = 0.0734048, Final residual = 0.00073163, No Iterations 155
diagonal:  Solving for rho, Initial residual = 0, Final residual = 0, No Iterations 0
time step continuity errors : sum local = 7.62239e-07, global = 1.92678e-14, cumulative = 1.08703e-12
DICPCG:  Solving for p_rgh, Initial residual = 0.0403526, Final residual = 9.80324e-08, No Iterations 258
diagonal:  Solving for rho, Initial residual = 0, Final residual = 0, No Iterations 0
time step continuity errors : sum local = 1.18044e-07, global = 1.7446e-14, cumulative = 1.10447e-12
ExecutionTime = 23.01 s  ClockTime = 25 s

Courant Number mean: 0.000478754 max: 0.25986
deltaT = 0.00397483
Time = 0.066912

diagonal:  Solving for rho, Initial residual = 0, Final residual = 0, No Iterations 0
PIMPLE: iteration 1
DICPCG:  Solving for p_rgh, Initial residual = 0.0742897, Final residual = 0.000738664, No Iterations 156
diagonal:  Solving for rho, Initial residual = 0, Final residual = 0, No Iterations 0
time step continuity errors : sum local = 2.71126e-06, global = -1.48338e-14, cumulative = 1.08964e-12
DICPCG:  Solving for p_rgh, Initial residual = 0.0614884, Final residual = 9.5721e-08, No Iterations 262
diagonal:  Solving for rho, Initial residual = 0, Final residual = 0, No Iterations 0
time step continuity errors : sum local = 2.78796e-06, global = -1.3198e-15, cumulative = 1.08832e-12
ExecutionTime = 24.36 s  ClockTime = 26 s

Courant Number mean: 0.000566841 max: 0.260454
deltaT = 0.00473681
Time = 0.0716488

diagonal:  Solving for rho, Initial residual = 0, Final residual = 0, No Iterations 0
PIMPLE: iteration 1
DICPCG:  Solving for p_rgh, Initial residual = 0.0946009, Final residual = 0.000915801, No Iterations 153
diagonal:  Solving for rho, Initial residual = 0, Final residual = 0, No Iterations 0
time step continuity errors : sum local = 5.29592e-06, global = -1.92968e-14, cumulative = 1.06902e-12
DICPCG:  Solving for p_rgh, Initial residual = 0.0785156, Final residual = 9.9344e-08, No Iterations 280
diagonal:  Solving for rho, Initial residual = 0, Final residual = 0, No Iterations 0
time step continuity errors : sum local = 4.5231e-06, global = -6.02859e-15, cumulative = 1.063e-12
ExecutionTime = 25.67 s  ClockTime = 28 s

Courant Number mean: 0.000673551 max: 0.289639
deltaT = 0.00555588
Time = 0.0772047

diagonal:  Solving for rho, Initial residual = 0, Final residual = 0, No Iterations 0
PIMPLE: iteration 1
DICPCG:  Solving for p_rgh, Initial residual = 0.140766, Final residual = 0.00138711, No Iterations 163
diagonal:  Solving for rho, Initial residual = 0, Final residual = 0, No Iterations 0
time step continuity errors : sum local = 5.3736e-06, global = -4.0424e-15, cumulative = 1.05895e-12
DICPCG:  Solving for p_rgh, Initial residual = 0.154882, Final residual = 9.78811e-08, No Iterations 283
diagonal:  Solving for rho, Initial residual = 0, Final residual = 0, No Iterations 0
time step continuity errors : sum local = 3.9109e-06, global = -1.17721e-14, cumulative = 1.04718e-12
ExecutionTime = 27.06 s  ClockTime = 29 s

Courant Number mean: 0.000761733 max: 0.308113
deltaT = 0.00645595
Time = 0.0836607

diagonal:  Solving for rho, Initial residual = 0, Final residual = 0, No Iterations 0
PIMPLE: iteration 1
DICPCG:  Solving for p_rgh, Initial residual = 0.1725, Final residual = 0.00168435, No Iterations 150
diagonal:  Solving for rho, Initial residual = 0, Final residual = 0, No Iterations 0
time step continuity errors : sum local = 2.42829e-06, global = 2.08133e-14, cumulative = 1.06799e-12
DICPCG:  Solving for p_rgh, Initial residual = 0.0457769, Final residual = 9.10894e-08, No Iterations 281
diagonal:  Solving for rho, Initial residual = 0, Final residual = 0, No Iterations 0
time step continuity errors : sum local = 1.14601e-06, global = 6.60219e-15, cumulative = 1.0746e-12
ExecutionTime = 28.41 s  ClockTime = 31 s

Courant Number mean: 0.000853989 max: 0.318008
deltaT = 0.00747275
Time = 0.0911334

diagonal:  Solving for rho, Initial residual = 0, Final residual = 0, No Iterations 0
PIMPLE: iteration 1
DICPCG:  Solving for p_rgh, Initial residual = 0.0898729, Final residual = 0.000896888, No Iterations 133
diagonal:  Solving for rho, Initial residual = 0, Final residual = 0, No Iterations 0
time step continuity errors : sum local = 1.43574e-06, global = -5.21586e-16, cumulative = 1.07407e-12
DICPCG:  Solving for p_rgh, Initial residual = 0.0483318, Final residual = 8.87689e-08, No Iterations 291
diagonal:  Solving for rho, Initial residual = 0, Final residual = 0, No Iterations 0
time step continuity errors : sum local = 1.50367e-06, global = 7.82584e-15, cumulative = 1.0819e-12
ExecutionTime = 29.67 s  ClockTime = 32 s

Courant Number mean: 0.000971585 max: 0.313085
deltaT = 0.00866917
Time = 0.0998026

diagonal:  Solving for rho, Initial residual = 0, Final residual = 0, No Iterations 0
PIMPLE: iteration 1
DICPCG:  Solving for p_rgh, Initial residual = 0.108192, Final residual = 0.0010051, No Iterations 174
diagonal:  Solving for rho, Initial residual = 0, Final residual = 0, No Iterations 0
time step continuity errors : sum local = 2.78206e-06, global = -1.24854e-14, cumulative = 1.06941e-12
DICPCG:  Solving for p_rgh, Initial residual = 0.0908183, Final residual = 8.5519e-08, No Iterations 301
diagonal:  Solving for rho, Initial residual = 0, Final residual = 0, No Iterations 0
time step continuity errors : sum local = 1.81296e-06, global = -1.83567e-15, cumulative = 1.06758e-12
ExecutionTime = 31.08 s  ClockTime = 33 s

Courant Number mean: 0.00111118 max: 0.327228
deltaT = 0.00999011
Time = 0.109793

diagonal:  Solving for rho, Initial residual = 0, Final residual = 0, No Iterations 0
PIMPLE: iteration 1
DICPCG:  Solving for p_rgh, Initial residual = 0.104197, Final residual = 0.00100857, No Iterations 163
diagonal:  Solving for rho, Initial residual = 0, Final residual = 0, No Iterations 0
time step continuity errors : sum local = 1.19891e-06, global = -2.11072e-15, cumulative = 1.06547e-12
DICPCG:  Solving for p_rgh, Initial residual = 0.0324501, Final residual = 9.84819e-08, No Iterations 288
diagonal:  Solving for rho, Initial residual = 0, Final residual = 0, No Iterations 0
time step continuity errors : sum local = 4.00545e-07, global = 5.03223e-15, cumulative = 1.0705e-12
ExecutionTime = 32.47 s  ClockTime = 35 s

Courant Number mean: 0.0012609 max: 0.337876
deltaT = 0.0114736
Time = 0.121266

diagonal:  Solving for rho, Initial residual = 0, Final residual = 0, No Iterations 0
PIMPLE: iteration 1
DICPCG:  Solving for p_rgh, Initial residual = 0.0675585, Final residual = 0.000647753, No Iterations 173
diagonal:  Solving for rho, Initial residual = 0, Final residual = 0, No Iterations 0
time step continuity errors : sum local = 6.12101e-07, global = -6.64075e-15, cumulative = 1.06386e-12
DICPCG:  Solving for p_rgh, Initial residual = 0.0347771, Final residual = 9.33724e-08, No Iterations 292
diagonal:  Solving for rho, Initial residual = 0, Final residual = 0, No Iterations 0
time step continuity errors : sum local = 5.80092e-07, global = -9.26685e-15, cumulative = 1.05459e-12
ExecutionTime = 33.94 s  ClockTime = 36 s

Courant Number mean: 0.0014249 max: 0.34049
deltaT = 0.0131541
Time = 0.13442

diagonal:  Solving for rho, Initial residual = 0, Final residual = 0, No Iterations 0
PIMPLE: iteration 1
DICPCG:  Solving for p_rgh, Initial residual = 0.0684611, Final residual = 0.000656738, No Iterations 183
diagonal:  Solving for rho, Initial residual = 0, Final residual = 0, No Iterations 0
time step continuity errors : sum local = 8.34233e-07, global = -3.29535e-15, cumulative = 1.0513e-12
DICPCG:  Solving for p_rgh, Initial residual = 0.0415348, Final residual = 8.70863e-08, No Iterations 298
diagonal:  Solving for rho, Initial residual = 0, Final residual = 0, No Iterations 0
time step continuity errors : sum local = 4.30674e-07, global = 1.39541e-15, cumulative = 1.05269e-12
ExecutionTime = 35.51 s  ClockTime = 38 s

Courant Number mean: 0.00159829 max: 0.342075
deltaT = 0.015085
Time = 0.149505

diagonal:  Solving for rho, Initial residual = 0, Final residual = 0, No Iterations 0
PIMPLE: iteration 1
DICPCG:  Solving for p_rgh, Initial residual = 0.084625, Final residual = 0.000771055, No Iterations 183
diagonal:  Solving for rho, Initial residual = 0, Final residual = 0, No Iterations 0
time step continuity errors : sum local = 1.76201e-07, global = 1.45803e-15, cumulative = 1.05415e-12
DICPCG:  Solving for p_rgh, Initial residual = 0.0470589, Final residual = 9.02916e-08, No Iterations 310
diagonal:  Solving for rho, Initial residual = 0, Final residual = 0, No Iterations 0
time step continuity errors : sum local = 1.59148e-08, global = -6.74743e-15, cumulative = 1.0474e-12
ExecutionTime = 36.92 s  ClockTime = 39 s

Courant Number mean: 0.00178789 max: 0.381919
deltaT = 0.0170719
Time = 0.166577

diagonal:  Solving for rho, Initial residual = 0, Final residual = 0, No Iterations 0
PIMPLE: iteration 1
DICPCG:  Solving for p_rgh, Initial residual = 0.0940293, Final residual = 0.000857472, No Iterations 165
diagonal:  Solving for rho, Initial residual = 0, Final residual = 0, No Iterations 0
time step continuity errors : sum local = 1.62684e-07, global = 1.32454e-15, cumulative = 1.04873e-12
DICPCG:  Solving for p_rgh, Initial residual = 0.0387556, Final residual = 9.39606e-08, No Iterations 311
diagonal:  Solving for rho, Initial residual = 0, Final residual = 0, No Iterations 0
time step continuity errors : sum local = 5.36997e-08, global = 1.51098e-14, cumulative = 1.06384e-12
ExecutionTime = 38.42 s  ClockTime = 41 s

Courant Number mean: 0.00197218 max: 0.399932
deltaT = 0.0192059
Time = 0.185783

diagonal:  Solving for rho, Initial residual = 0, Final residual = 0, No Iterations 0
PIMPLE: iteration 1
DICPCG:  Solving for p_rgh, Initial residual = 0.0735668, Final residual = 0.000726826, No Iterations 170
diagonal:  Solving for rho, Initial residual = 0, Final residual = 0, No Iterations 0
time step continuity errors : sum local = 7.69307e-08, global = -8.53679e-15, cumulative = 1.0553e-12
DICPCG:  Solving for p_rgh, Initial residual = 0.0335739, Final residual = 9.57375e-08, No Iterations 307
diagonal:  Solving for rho, Initial residual = 0, Final residual = 0, No Iterations 0
time step continuity errors : sum local = 2.64685e-08, global = -2.7946e-14, cumulative = 1.02736e-12
ExecutionTime = 39.88 s  ClockTime = 42 s

Courant Number mean: 0.0021667 max: 0.403263
deltaT = 0.0215697
Time = 0.207353

diagonal:  Solving for rho, Initial residual = 0, Final residual = 0, No Iterations 0
PIMPLE: iteration 1
DICPCG:  Solving for p_rgh, Initial residual = 0.0653067, Final residual = 0.000619188, No Iterations 168
diagonal:  Solving for rho, Initial residual = 0, Final residual = 0, No Iterations 0
time step continuity errors : sum local = 8.58005e-08, global = 2.55584e-14, cumulative = 1.05291e-12
DICPCG:  Solving for p_rgh, Initial residual = 0.0336875, Final residual = 9.12675e-08, No Iterations 308
diagonal:  Solving for rho, Initial residual = 0, Final residual = 0, No Iterations 0
time step continuity errors : sum local = 3.67156e-08, global = 3.60078e-14, cumulative = 1.08892e-12
ExecutionTime = 41.59 s  ClockTime = 44 s

Courant Number mean: 0.00237745 max: 0.419889
deltaT = 0.0241198
Time = 0.231473

diagonal:  Solving for rho, Initial residual = 0, Final residual = 0, No Iterations 0
PIMPLE: iteration 1
DICPCG:  Solving for p_rgh, Initial residual = 0.0621562, Final residual = 0.000594977, No Iterations 145
diagonal:  Solving for rho, Initial residual = 0, Final residual = 0, No Iterations 0
time step continuity errors : sum local = 6.98258e-08, global = -1.25163e-14, cumulative = 1.07641e-12
DICPCG:  Solving for p_rgh, Initial residual = 0.0335796, Final residual = 9.9366e-08, No Iterations 311
diagonal:  Solving for rho, Initial residual = 0, Final residual = 0, No Iterations 0
time step continuity errors : sum local = 2.14615e-08, global = -2.53704e-14, cumulative = 1.05104e-12
ExecutionTime = 43.1 s  ClockTime = 45 s

Courant Number mean: 0.00259498 max: 0.429811
deltaT = 0.0269105
Time = 0.258383

diagonal:  Solving for rho, Initial residual = 0, Final residual = 0, No Iterations 0
PIMPLE: iteration 1
DICPCG:  Solving for p_rgh, Initial residual = 0.0552922, Final residual = 0.000548813, No Iterations 89
diagonal:  Solving for rho, Initial residual = 0, Final residual = 0, No Iterations 0
time step continuity errors : sum local = 6.56728e-08, global = -6.44113e-15, cumulative = 1.04459e-12
DICPCG:  Solving for p_rgh, Initial residual = 0.0322853, Final residual = 9.88595e-08, No Iterations 312
diagonal:  Solving for rho, Initial residual = 0, Final residual = 0, No Iterations 0
time step continuity errors : sum local = 1.98437e-08, global = 2.09227e-15, cumulative = 1.04669e-12
ExecutionTime = 44.67 s  ClockTime = 48 s

Courant Number mean: 0.00282987 max: 0.436775
deltaT = 0.0299742
Time = 0.288357

diagonal:  Solving for rho, Initial residual = 0, Final residual = 0, No Iterations 0
PIMPLE: iteration 1
DICPCG:  Solving for p_rgh, Initial residual = 0.0644657, Final residual = 0.000642964, No Iterations 88
diagonal:  Solving for rho, Initial residual = 0, Final residual = 0, No Iterations 0
time step continuity errors : sum local = 7.37185e-08, global = 1.44068e-14, cumulative = 1.06109e-12
DICPCG:  Solving for p_rgh, Initial residual = 0.032642, Final residual = 8.82261e-08, No Iterations 313
diagonal:  Solving for rho, Initial residual = 0, Final residual = 0, No Iterations 0
time step continuity errors : sum local = 1.43891e-08, global = 9.15772e-15, cumulative = 1.07025e-12
ExecutionTime = 45.92 s  ClockTime = 49 s

Courant Number mean: 0.00308013 max: 0.439064
deltaT = 0.0333733
Time = 0.321731

diagonal:  Solving for rho, Initial residual = 0, Final residual = 0, No Iterations 0
PIMPLE: iteration 1
DICPCG:  Solving for p_rgh, Initial residual = 0.0527007, Final residual = 0.000524576, No Iterations 80
diagonal:  Solving for rho, Initial residual = 0, Final residual = 0, No Iterations 0
time step continuity errors : sum local = 5.80919e-08, global = -1.60141e-14, cumulative = 1.05424e-12
DICPCG:  Solving for p_rgh, Initial residual = 0.0309915, Final residual = 9.96631e-08, No Iterations 313
diagonal:  Solving for rho, Initial residual = 0, Final residual = 0, No Iterations 0
time step continuity errors : sum local = 9.56307e-09, global = 2.25686e-14, cumulative = 1.07681e-12
ExecutionTime = 47.11 s  ClockTime = 50 s

Courant Number mean: 0.00334971 max: 0.435495
deltaT = 0.0372241
Time = 0.358955

diagonal:  Solving for rho, Initial residual = 0, Final residual = 0, No Iterations 0
PIMPLE: iteration 1
DICPCG:  Solving for p_rgh, Initial residual = 0.0454337, Final residual = 0.000453049, No Iterations 81
diagonal:  Solving for rho, Initial residual = 0, Final residual = 0, No Iterations 0
time step continuity errors : sum local = 5.35e-08, global = -2.89171e-14, cumulative = 1.04789e-12
DICPCG:  Solving for p_rgh, Initial residual = 0.0286189, Final residual = 8.42683e-08, No Iterations 314
diagonal:  Solving for rho, Initial residual = 0, Final residual = 0, No Iterations 0
time step continuity errors : sum local = 9.0017e-09, global = -3.29903e-14, cumulative = 1.0149e-12
ExecutionTime = 48.59 s  ClockTime = 52 s

Courant Number mean: 0.00364852 max: 0.43499
deltaT = 0.0415562
Time = 0.400511

diagonal:  Solving for rho, Initial residual = 0, Final residual = 0, No Iterations 0
PIMPLE: iteration 1
DICPCG:  Solving for p_rgh, Initial residual = 0.0450892, Final residual = 0.000439078, No Iterations 77
diagonal:  Solving for rho, Initial residual = 0, Final residual = 0, No Iterations 0
time step continuity errors : sum local = 5.4437e-08, global = -3.78788e-15, cumulative = 1.01111e-12
DICPCG:  Solving for p_rgh, Initial residual = 0.0262896, Final residual = 9.29287e-08, No Iterations 314
diagonal:  Solving for rho, Initial residual = 0, Final residual = 0, No Iterations 0
time step continuity errors : sum local = 8.07961e-09, global = 6.99218e-15, cumulative = 1.0181e-12
ExecutionTime = 49.84 s  ClockTime = 53 s

Courant Number mean: 0.00397712 max: 0.464575
deltaT = 0.0446488
Time = 0.44516

diagonal:  Solving for rho, Initial residual = 0, Final residual = 0, No Iterations 0
PIMPLE: iteration 1
DICPCG:  Solving for p_rgh, Initial residual = 0.0392408, Final residual = 0.00038932, No Iterations 98
diagonal:  Solving for rho, Initial residual = 0, Final residual = 0, No Iterations 0
time step continuity errors : sum local = 5.20151e-08, global = -4.70652e-15, cumulative = 1.0134e-12
DICPCG:  Solving for p_rgh, Initial residual = 0.0234549, Final residual = 9.969e-08, No Iterations 313
diagonal:  Solving for rho, Initial residual = 0, Final residual = 0, No Iterations 0
time step continuity errors : sum local = 8.34911e-09, global = -1.21339e-14, cumulative = 1.00126e-12
ExecutionTime = 51.09 s  ClockTime = 54 s

Courant Number mean: 0.00417736 max: 0.471883
deltaT = 0.0473012
Time = 0.492461

diagonal:  Solving for rho, Initial residual = 0, Final residual = 0, No Iterations 0
PIMPLE: iteration 1
DICPCG:  Solving for p_rgh, Initial residual = 0.0313941, Final residual = 0.000305344, No Iterations 105
diagonal:  Solving for rho, Initial residual = 0, Final residual = 0, No Iterations 0
time step continuity errors : sum local = 4.07822e-08, global = -1.88156e-14, cumulative = 9.82446e-13
DICPCG:  Solving for p_rgh, Initial residual = 0.0214419, Final residual = 8.11642e-08, No Iterations 314
diagonal:  Solving for rho, Initial residual = 0, Final residual = 0, No Iterations 0
time step continuity errors : sum local = 7.32573e-09, global = -2.06578e-14, cumulative = 9.61788e-13
ExecutionTime = 52.35 s  ClockTime = 55 s

Courant Number mean: 0.00433036 max: 0.469312
deltaT = 0.0503044
Time = 0.542766

diagonal:  Solving for rho, Initial residual = 0, Final residual = 0, No Iterations 0
PIMPLE: iteration 1
DICPCG:  Solving for p_rgh, Initial residual = 0.0296863, Final residual = 0.000284959, No Iterations 105
diagonal:  Solving for rho, Initial residual = 0, Final residual = 0, No Iterations 0
time step continuity errors : sum local = 3.81188e-08, global = 4.52026e-14, cumulative = 1.00699e-12
DICPCG:  Solving for p_rgh, Initial residual = 0.0197393, Final residual = 8.02175e-08, No Iterations 314
diagonal:  Solving for rho, Initial residual = 0, Final residual = 0, No Iterations 0
time step continuity errors : sum local = 6.67832e-09, global = 4.70684e-14, cumulative = 1.05406e-12
ExecutionTime = 53.64 s  ClockTime = 57 s

Courant Number mean: 0.00450862 max: 0.472942
deltaT = 0.0531305
Time = 0.595896

diagonal:  Solving for rho, Initial residual = 0, Final residual = 0, No Iterations 0
PIMPLE: iteration 1
DICPCG:  Solving for p_rgh, Initial residual = 0.0255164, Final residual = 0.000254352, No Iterations 106
diagonal:  Solving for rho, Initial residual = 0, Final residual = 0, No Iterations 0
time step continuity errors : sum local = 3.4307e-08, global = -1.1959e-15, cumulative = 1.05286e-12
DICPCG:  Solving for p_rgh, Initial residual = 0.0178303, Final residual = 9.32539e-08, No Iterations 313
diagonal:  Solving for rho, Initial residual = 0, Final residual = 0, No Iterations 0
time step continuity errors : sum local = 6.66884e-09, global = -5.13416e-15, cumulative = 1.04773e-12
ExecutionTime = 54.92 s  ClockTime = 58 s

Courant Number mean: 0.0046644 max: 0.470064
deltaT = 0.0566512
Time = 0.652547

diagonal:  Solving for rho, Initial residual = 0, Final residual = 0, No Iterations 0
PIMPLE: iteration 1
DICPCG:  Solving for p_rgh, Initial residual = 0.0234092, Final residual = 0.000231572, No Iterations 108
diagonal:  Solving for rho, Initial residual = 0, Final residual = 0, No Iterations 0
time step continuity errors : sum local = 3.20541e-08, global = 1.06622e-14, cumulative = 1.05839e-12
DICPCG:  Solving for p_rgh, Initial residual = 0.0161597, Final residual = 9.08903e-08, No Iterations 313
diagonal:  Solving for rho, Initial residual = 0, Final residual = 0, No Iterations 0
time step continuity errors : sum local = 6.73382e-09, global = 7.7699e-15, cumulative = 1.06616e-12
ExecutionTime = 56.4 s  ClockTime = 60 s

Courant Number mean: 0.00487352 max: 0.468165
deltaT = 0.0606977
Time = 0.713245

diagonal:  Solving for rho, Initial residual = 0, Final residual = 0, No Iterations 0
PIMPLE: iteration 1
DICPCG:  Solving for p_rgh, Initial residual = 0.0237512, Final residual = 0.000236666, No Iterations 105
diagonal:  Solving for rho, Initial residual = 0, Final residual = 0, No Iterations 0
time step continuity errors : sum local = 3.3948e-08, global = -3.42787e-14, cumulative = 1.03188e-12
DICPCG:  Solving for p_rgh, Initial residual = 0.0148621, Final residual = 9.56341e-08, No Iterations 312
diagonal:  Solving for rho, Initial residual = 0, Final residual = 0, No Iterations 0
time step continuity errors : sum local = 7.3516e-09, global = -4.94626e-14, cumulative = 9.8242e-13
ExecutionTime = 57.81 s  ClockTime = 61 s

Courant Number mean: 0.00511916 max: 0.466485
deltaT = 0.0649423
Time = 0.778187

diagonal:  Solving for rho, Initial residual = 0, Final residual = 0, No Iterations 0
PIMPLE: iteration 1
DICPCG:  Solving for p_rgh, Initial residual = 0.0228633, Final residual = 0.000225215, No Iterations 104
diagonal:  Solving for rho, Initial residual = 0, Final residual = 0, No Iterations 0
time step continuity errors : sum local = 3.44273e-08, global = 2.01207e-14, cumulative = 1.00254e-12
DICPCG:  Solving for p_rgh, Initial residual = 0.0137174, Final residual = 8.83383e-08, No Iterations 312
diagonal:  Solving for rho, Initial residual = 0, Final residual = 0, No Iterations 0
time step continuity errors : sum local = 7.83289e-09, global = 3.29751e-14, cumulative = 1.03552e-12
ExecutionTime = 59 s  ClockTime = 62 s

Courant Number mean: 0.0053715 max: 0.462418
deltaT = 0.0703955
Time = 0.848583

diagonal:  Solving for rho, Initial residual = 0, Final residual = 0, No Iterations 0
PIMPLE: iteration 1
DICPCG:  Solving for p_rgh, Initial residual = 0.0201537, Final residual = 0.000195643, No Iterations 104
diagonal:  Solving for rho, Initial residual = 0, Final residual = 0, No Iterations 0
time step continuity errors : sum local = 3.21323e-08, global = 7.15824e-15, cumulative = 1.04267e-12
DICPCG:  Solving for p_rgh, Initial residual = 0.0121739, Final residual = 9.44532e-08, No Iterations 308
diagonal:  Solving for rho, Initial residual = 0, Final residual = 0, No Iterations 0
time step continuity errors : sum local = 8.44106e-09, global = 3.56054e-15, cumulative = 1.04623e-12
ExecutionTime = 60.18 s  ClockTime = 63 s

Courant Number mean: 0.00571217 max: 0.462536
deltaT = 0.0762618
Time = 0.924845

diagonal:  Solving for rho, Initial residual = 0, Final residual = 0, No Iterations 0
PIMPLE: iteration 1
DICPCG:  Solving for p_rgh, Initial residual = 0.0188901, Final residual = 0.000187113, No Iterations 103
diagonal:  Solving for rho, Initial residual = 0, Final residual = 0, No Iterations 0
time step continuity errors : sum local = 3.3018e-08, global = 7.76971e-15, cumulative = 1.054e-12
DICPCG:  Solving for p_rgh, Initial residual = 0.0110983, Final residual = 9.21256e-08, No Iterations 305
diagonal:  Solving for rho, Initial residual = 0, Final residual = 0, No Iterations 0
time step continuity errors : sum local = 8.84184e-09, global = -4.01028e-14, cumulative = 1.0139e-12
ExecutionTime = 61.34 s  ClockTime = 65 s

Courant Number mean: 0.00607365 max: 0.460616
deltaT = 0.0825014
Time = 1.00735

diagonal:  Solving for rho, Initial residual = 0, Final residual = 0, No Iterations 0
PIMPLE: iteration 1
DICPCG:  Solving for p_rgh, Initial residual = 0.0176562, Final residual = 0.000170286, No Iterations 102
diagonal:  Solving for rho, Initial residual = 0, Final residual = 0, No Iterations 0
time step continuity errors : sum local = 3.18113e-08, global = 2.04946e-14, cumulative = 1.0344e-12
DICPCG:  Solving for p_rgh, Initial residual = 0.0101489, Final residual = 8.88907e-08, No Iterations 305
diagonal:  Solving for rho, Initial residual = 0, Final residual = 0, No Iterations 0
time step continuity errors : sum local = 9.73269e-09, global = 2.38206e-14, cumulative = 1.05822e-12
ExecutionTime = 62.48 s  ClockTime = 66 s

Courant Number mean: 0.00645097 max: 0.461373
deltaT = 0.0890362
Time = 1.09638

diagonal:  Solving for rho, Initial residual = 0, Final residual = 0, No Iterations 0
PIMPLE: iteration 1
DICPCG:  Solving for p_rgh, Initial residual = 0.0170151, Final residual = 0.000160466, No Iterations 102
diagonal:  Solving for rho, Initial residual = 0, Final residual = 0, No Iterations 0
time step continuity errors : sum local = 3.22108e-08, global = 5.01176e-15, cumulative = 1.06323e-12
DICPCG:  Solving for p_rgh, Initial residual = 0.00928596, Final residual = 9.11587e-08, No Iterations 305
diagonal:  Solving for rho, Initial residual = 0, Final residual = 0, No Iterations 0
time step continuity errors : sum local = 1.06475e-08, global = -1.19352e-14, cumulative = 1.05129e-12
ExecutionTime = 63.69 s  ClockTime = 67 s

Courant Number mean: 0.00683714 max: 0.461836
deltaT = 0.0967785
Time = 1.19316

diagonal:  Solving for rho, Initial residual = 0, Final residual = 0, No Iterations 0
PIMPLE: iteration 1
DICPCG:  Solving for p_rgh, Initial residual = 0.0158505, Final residual = 0.000148351, No Iterations 102
diagonal:  Solving for rho, Initial residual = 0, Final residual = 0, No Iterations 0
time step continuity errors : sum local = 3.2019e-08, global = 5.22148e-14, cumulative = 1.10351e-12
DICPCG:  Solving for p_rgh, Initial residual = 0.00847228, Final residual = 9.69219e-08, No Iterations 305
diagonal:  Solving for rho, Initial residual = 0, Final residual = 0, No Iterations 0
time step continuity errors : sum local = 1.1779e-08, global = 1.73549e-14, cumulative = 1.12086e-12
ExecutionTime = 64.86 s  ClockTime = 68 s

Courant Number mean: 0.00730045 max: 0.465464
deltaT = 0.10361
Time = 1.29677

diagonal:  Solving for rho, Initial residual = 0, Final residual = 0, No Iterations 0
PIMPLE: iteration 1
DICPCG:  Solving for p_rgh, Initial residual = 0.0144986, Final residual = 0.000140496, No Iterations 102
diagonal:  Solving for rho, Initial residual = 0, Final residual = 0, No Iterations 0
time step continuity errors : sum local = 3.18789e-08, global = -1.93811e-14, cumulative = 1.10148e-12
DICPCG:  Solving for p_rgh, Initial residual = 0.00779461, Final residual = 9.73295e-08, No Iterations 305
diagonal:  Solving for rho, Initial residual = 0, Final residual = 0, No Iterations 0
time step continuity errors : sum local = 1.26928e-08, global = 1.57204e-14, cumulative = 1.1172e-12
ExecutionTime = 66.03 s  ClockTime = 69 s

Courant Number mean: 0.00767982 max: 0.462088
deltaT = 0.11158
Time = 1.40835

diagonal:  Solving for rho, Initial residual = 0, Final residual = 0, No Iterations 0
PIMPLE: iteration 1
DICPCG:  Solving for p_rgh, Initial residual = 0.0131218, Final residual = 0.00012552, No Iterations 103
diagonal:  Solving for rho, Initial residual = 0, Final residual = 0, No Iterations 0
time step continuity errors : sum local = 3.05754e-08, global = -1.75513e-14, cumulative = 1.09965e-12
DICPCG:  Solving for p_rgh, Initial residual = 0.0071715, Final residual = 8.64681e-08, No Iterations 305
diagonal:  Solving for rho, Initial residual = 0, Final residual = 0, No Iterations 0
time step continuity errors : sum local = 1.37042e-08, global = -3.27917e-15, cumulative = 1.09637e-12
ExecutionTime = 67.28 s  ClockTime = 70 s

Courant Number mean: 0.00812857 max: 0.461541
deltaT = 0.121009
Time = 1.52936

diagonal:  Solving for rho, Initial residual = 0, Final residual = 0, No Iterations 0
PIMPLE: iteration 1
DICPCG:  Solving for p_rgh, Initial residual = 0.0123818, Final residual = 0.000116439, No Iterations 105
diagonal:  Solving for rho, Initial residual = 0, Final residual = 0, No Iterations 0
time step continuity errors : sum local = 3.10162e-08, global = -2.5825e-14, cumulative = 1.07055e-12
DICPCG:  Solving for p_rgh, Initial residual = 0.0065612, Final residual = 9.80275e-08, No Iterations 304
diagonal:  Solving for rho, Initial residual = 0, Final residual = 0, No Iterations 0
time step continuity errors : sum local = 1.5167e-08, global = 1.0903e-14, cumulative = 1.08145e-12
ExecutionTime = 68.5 s  ClockTime = 72 s

Courant Number mean: 0.00866607 max: 0.464455
deltaT = 0.130318
Time = 1.65968

diagonal:  Solving for rho, Initial residual = 0, Final residual = 0, No Iterations 0
PIMPLE: iteration 1
DICPCG:  Solving for p_rgh, Initial residual = 0.0116549, Final residual = 0.000113015, No Iterations 106
diagonal:  Solving for rho, Initial residual = 0, Final residual = 0, No Iterations 0
time step continuity errors : sum local = 3.21748e-08, global = -3.94604e-14, cumulative = 1.04199e-12
DICPCG:  Solving for p_rgh, Initial residual = 0.00609475, Final residual = 8.79928e-08, No Iterations 304
diagonal:  Solving for rho, Initial residual = 0, Final residual = 0, No Iterations 0
time step continuity errors : sum local = 1.64459e-08, global = -2.55261e-14, cumulative = 1.01646e-12
ExecutionTime = 69.67 s  ClockTime = 73 s

Courant Number mean: 0.00917666 max: 0.464524
deltaT = 0.141361
Time = 1.80104

diagonal:  Solving for rho, Initial residual = 0, Final residual = 0, No Iterations 0
PIMPLE: iteration 1
DICPCG:  Solving for p_rgh, Initial residual = 0.0109792, Final residual = 0.000106847, No Iterations 107
diagonal:  Solving for rho, Initial residual = 0, Final residual = 0, No Iterations 0
time step continuity errors : sum local = 3.38323e-08, global = -1.62074e-14, cumulative = 1.00026e-12
DICPCG:  Solving for p_rgh, Initial residual = 0.00566516, Final residual = 9.68884e-08, No Iterations 303
diagonal:  Solving for rho, Initial residual = 0, Final residual = 0, No Iterations 0
time step continuity errors : sum local = 1.85672e-08, global = -4.24518e-15, cumulative = 9.9601e-13
ExecutionTime = 70.89 s  ClockTime = 74 s

Courant Number mean: 0.00979038 max: 0.468349
deltaT = 0.151833
Time = 1.95287

diagonal:  Solving for rho, Initial residual = 0, Final residual = 0, No Iterations 0
PIMPLE: iteration 1
DICPCG:  Solving for p_rgh, Initial residual = 0.0102742, Final residual = 0.000101863, No Iterations 109
diagonal:  Solving for rho, Initial residual = 0, Final residual = 0, No Iterations 0
time step continuity errors : sum local = 3.50058e-08, global = 2.54922e-14, cumulative = 1.0215e-12
DICPCG:  Solving for p_rgh, Initial residual = 0.00526437, Final residual = 9.36189e-08, No Iterations 303
diagonal:  Solving for rho, Initial residual = 0, Final residual = 0, No Iterations 0
time step continuity errors : sum local = 1.94079e-08, global = 4.10166e-14, cumulative = 1.06252e-12
ExecutionTime = 72.08 s  ClockTime = 75 s

Courant Number mean: 0.0103446 max: 0.468553
deltaT = 0.160943
Time = 2.11381

diagonal:  Solving for rho, Initial residual = 0, Final residual = 0, No Iterations 0
PIMPLE: iteration 1
DICPCG:  Solving for p_rgh, Initial residual = 0.00951353, Final residual = 8.74921e-05, No Iterations 108
diagonal:  Solving for rho, Initial residual = 0, Final residual = 0, No Iterations 0
time step continuity errors : sum local = 3.21983e-08, global = -6.27644e-14, cumulative = 9.99755e-13
DICPCG:  Solving for p_rgh, Initial residual = 0.00487554, Final residual = 9.72603e-08, No Iterations 303
diagonal:  Solving for rho, Initial residual = 0, Final residual = 0, No Iterations 0
time step continuity errors : sum local = 2.12112e-08, global = -1.53832e-14, cumulative = 9.84372e-13
ExecutionTime = 73.24 s  ClockTime = 76 s

Courant Number mean: 0.0107892 max: 0.46544
deltaT = 0.171439
Time = 2.28525

diagonal:  Solving for rho, Initial residual = 0, Final residual = 0, No Iterations 0
PIMPLE: iteration 1
DICPCG:  Solving for p_rgh, Initial residual = 0.00905281, Final residual = 9.02895e-05, No Iterations 201
diagonal:  Solving for rho, Initial residual = 0, Final residual = 0, No Iterations 0
time step continuity errors : sum local = 3.57002e-08, global = -6.95142e-15, cumulative = 9.7742e-13
DICPCG:  Solving for p_rgh, Initial residual = 0.00459834, Final residual = 8.92891e-08, No Iterations 304
diagonal:  Solving for rho, Initial residual = 0, Final residual = 0, No Iterations 0
time step continuity errors : sum local = 2.27667e-08, global = -2.5764e-14, cumulative = 9.51656e-13
ExecutionTime = 74.61 s  ClockTime = 78 s

Courant Number mean: 0.0113103 max: 0.465059
deltaT = 0.183684
Time = 2.46894

diagonal:  Solving for rho, Initial residual = 0, Final residual = 0, No Iterations 0
PIMPLE: iteration 1
DICPCG:  Solving for p_rgh, Initial residual = 0.00871096, Final residual = 8.33656e-05, No Iterations 110
diagonal:  Solving for rho, Initial residual = 0, Final residual = 0, No Iterations 0
time step continuity errors : sum local = 3.58147e-08, global = 8.14491e-15, cumulative = 9.59801e-13
DICPCG:  Solving for p_rgh, Initial residual = 0.00430789, Final residual = 9.04708e-08, No Iterations 303
diagonal:  Solving for rho, Initial residual = 0, Final residual = 0, No Iterations 0
time step continuity errors : sum local = 2.36534e-08, global = -1.07675e-14, cumulative = 9.49034e-13
ExecutionTime = 75.79 s  ClockTime = 79 s

Courant Number mean: 0.0119274 max: 0.467833
deltaT = 0.198186
Time = 2.66712

diagonal:  Solving for rho, Initial residual = 0, Final residual = 0, No Iterations 0
PIMPLE: iteration 1
DICPCG:  Solving for p_rgh, Initial residual = 0.00844943, Final residual = 8.33755e-05, No Iterations 109
diagonal:  Solving for rho, Initial residual = 0, Final residual = 0, No Iterations 0
time step continuity errors : sum local = 3.85739e-08, global = 1.7743e-14, cumulative = 9.66777e-13
DICPCG:  Solving for p_rgh, Initial residual = 0.00410685, Final residual = 9.55761e-08, No Iterations 297
diagonal:  Solving for rho, Initial residual = 0, Final residual = 0, No Iterations 0
time step continuity errors : sum local = 2.61015e-08, global = 2.76346e-14, cumulative = 9.94411e-13
ExecutionTime = 77.03 s  ClockTime = 80 s

Courant Number mean: 0.012668 max: 0.474444
deltaT = 0.209511
Time = 2.87663

diagonal:  Solving for rho, Initial residual = 0, Final residual = 0, No Iterations 0
PIMPLE: iteration 1
DICPCG:  Solving for p_rgh, Initial residual = 0.00803286, Final residual = 7.95972e-05, No Iterations 121
diagonal:  Solving for rho, Initial residual = 0, Final residual = 0, No Iterations 0
time step continuity errors : sum local = 3.91472e-08, global = 7.43741e-16, cumulative = 9.95155e-13
DICPCG:  Solving for p_rgh, Initial residual = 0.00391893, Final residual = 9.89775e-08, No Iterations 300
diagonal:  Solving for rho, Initial residual = 0, Final residual = 0, No Iterations 0
time step continuity errors : sum local = 2.7593e-08, global = 9.54554e-16, cumulative = 9.96109e-13
ExecutionTime = 78.25 s  ClockTime = 82 s

Courant Number mean: 0.0131843 max: 0.472021
deltaT = 0.222605
Time = 3.09924

diagonal:  Solving for rho, Initial residual = 0, Final residual = 0, No Iterations 0
PIMPLE: iteration 1
DICPCG:  Solving for p_rgh, Initial residual = 0.00784147, Final residual = 7.51804e-05, No Iterations 108
diagonal:  Solving for rho, Initial residual = 0, Final residual = 0, No Iterations 0
time step continuity errors : sum local = 3.82698e-08, global = -6.00033e-15, cumulative = 9.90109e-13
DICPCG:  Solving for p_rgh, Initial residual = 0.00376814, Final residual = 9.32357e-08, No Iterations 303
diagonal:  Solving for rho, Initial residual = 0, Final residual = 0, No Iterations 0
time step continuity errors : sum local = 2.89645e-08, global = -3.22352e-14, cumulative = 9.57874e-13
ExecutionTime = 79.46 s  ClockTime = 83 s

Courant Number mean: 0.0137932 max: 0.472569
deltaT = 0.237957
Time = 3.3372

diagonal:  Solving for rho, Initial residual = 0, Final residual = 0, No Iterations 0
PIMPLE: iteration 1
DICPCG:  Solving for p_rgh, Initial residual = 0.00759306, Final residual = 7.36209e-05, No Iterations 118
diagonal:  Solving for rho, Initial residual = 0, Final residual = 0, No Iterations 0
time step continuity errors : sum local = 4.29317e-08, global = 3.77313e-14, cumulative = 9.95605e-13
DICPCG:  Solving for p_rgh, Initial residual = 0.00362779, Final residual = 9.30041e-08, No Iterations 300
diagonal:  Solving for rho, Initial residual = 0, Final residual = 0, No Iterations 0
time step continuity errors : sum local = 3.14438e-08, global = -1.56018e-14, cumulative = 9.80003e-13
ExecutionTime = 80.66 s  ClockTime = 84 s

Courant Number mean: 0.0145197 max: 0.476503
deltaT = 0.246771
Time = 3.58397

diagonal:  Solving for rho, Initial residual = 0, Final residual = 0, No Iterations 0
PIMPLE: iteration 1
DICPCG:  Solving for p_rgh, Initial residual = 0.00738279, Final residual = 7.08582e-05, No Iterations 108
diagonal:  Solving for rho, Initial residual = 0, Final residual = 0, No Iterations 0
time step continuity errors : sum local = 4.1999e-08, global = 3.64788e-14, cumulative = 1.01648e-12
DICPCG:  Solving for p_rgh, Initial residual = 0.00350866, Final residual = 9.70213e-08, No Iterations 302
diagonal:  Solving for rho, Initial residual = 0, Final residual = 0, No Iterations 0
time step continuity errors : sum local = 3.30469e-08, global = 5.84955e-14, cumulative = 1.07498e-12
ExecutionTime = 81.79 s  ClockTime = 85 s

Courant Number mean: 0.0148297 max: 0.466697
deltaT = 0.267335
Time = 3.8513

diagonal:  Solving for rho, Initial residual = 0, Final residual = 0, No Iterations 0
PIMPLE: iteration 1
DICPCG:  Solving for p_rgh, Initial residual = 0.00707893, Final residual = 6.98976e-05, No Iterations 110
diagonal:  Solving for rho, Initial residual = 0, Final residual = 0, No Iterations 0
time step continuity errors : sum local = 4.50981e-08, global = -1.44132e-14, cumulative = 1.06056e-12
DICPCG:  Solving for p_rgh, Initial residual = 0.00332998, Final residual = 9.20219e-08, No Iterations 302
diagonal:  Solving for rho, Initial residual = 0, Final residual = 0, No Iterations 0
time step continuity errors : sum local = 3.61205e-08, global = -4.85834e-14, cumulative = 1.01198e-12
ExecutionTime = 82.96 s  ClockTime = 86 s

Courant Number mean: 0.0158242 max: 0.478011
deltaT = 0.279486
Time = 4.13079

diagonal:  Solving for rho, Initial residual = 0, Final residual = 0, No Iterations 0
PIMPLE: iteration 1
DICPCG:  Solving for p_rgh, Initial residual = 0.00688397, Final residual = 6.4881e-05, No Iterations 117
diagonal:  Solving for rho, Initial residual = 0, Final residual = 0, No Iterations 0
time step continuity errors : sum local = 4.4904e-08, global = 3.13858e-14, cumulative = 1.04337e-12
DICPCG:  Solving for p_rgh, Initial residual = 0.00318941, Final residual = 8.85893e-08, No Iterations 301
diagonal:  Solving for rho, Initial residual = 0, Final residual = 0, No Iterations 0
time step continuity errors : sum local = 3.6859e-08, global = 4.53621e-14, cumulative = 1.08873e-12
ExecutionTime = 84.16 s  ClockTime = 88 s

Courant Number mean: 0.0162963 max: 0.473069
deltaT = 0.293461
Time = 4.42425

diagonal:  Solving for rho, Initial residual = 0, Final residual = 0, No Iterations 0
PIMPLE: iteration 1
DICPCG:  Solving for p_rgh, Initial residual = 0.00665319, Final residual = 6.23588e-05, No Iterations 118
diagonal:  Solving for rho, Initial residual = 0, Final residual = 0, No Iterations 0
time step continuity errors : sum local = 4.60474e-08, global = -2.13407e-14, cumulative = 1.06739e-12
DICPCG:  Solving for p_rgh, Initial residual = 0.00304897, Final residual = 8.55019e-08, No Iterations 299
diagonal:  Solving for rho, Initial residual = 0, Final residual = 0, No Iterations 0
time step continuity errors : sum local = 3.91801e-08, global = -1.14936e-14, cumulative = 1.05589e-12
ExecutionTime = 85.32 s  ClockTime = 89 s

Courant Number mean: 0.0168571 max: 0.470789
deltaT = 0.309764
Time = 4.73401

diagonal:  Solving for rho, Initial residual = 0, Final residual = 0, No Iterations 0
PIMPLE: iteration 1
DICPCG:  Solving for p_rgh, Initial residual = 0.00647642, Final residual = 6.46484e-05, No Iterations 118
diagonal:  Solving for rho, Initial residual = 0, Final residual = 0, No Iterations 0
time step continuity errors : sum local = 4.80348e-08, global = 4.1083e-15, cumulative = 1.06e-12
DICPCG:  Solving for p_rgh, Initial residual = 0.00292978, Final residual = 8.94425e-08, No Iterations 299
diagonal:  Solving for rho, Initial residual = 0, Final residual = 0, No Iterations 0
time step continuity errors : sum local = 4.23081e-08, global = 2.57003e-14, cumulative = 1.0857e-12
ExecutionTime = 86.49 s  ClockTime = 90 s

Courant Number mean: 0.0175312 max: 0.471576
deltaT = 0.329124
Time = 5.06314

diagonal:  Solving for rho, Initial residual = 0, Final residual = 0, No Iterations 0
PIMPLE: iteration 1
DICPCG:  Solving for p_rgh, Initial residual = 0.0063586, Final residual = 6.03124e-05, No Iterations 108
diagonal:  Solving for rho, Initial residual = 0, Final residual = 0, No Iterations 0
time step continuity errors : sum local = 4.96501e-08, global = -1.89084e-14, cumulative = 1.06679e-12
DICPCG:  Solving for p_rgh, Initial residual = 0.00284408, Final residual = 9.56289e-08, No Iterations 301
diagonal:  Solving for rho, Initial residual = 0, Final residual = 0, No Iterations 0
time step continuity errors : sum local = 4.62407e-08, global = -3.95473e-14, cumulative = 1.02725e-12
ExecutionTime = 87.65 s  ClockTime = 91 s

Courant Number mean: 0.018354 max: 0.476044
deltaT = 0.352633
Time = 5.41577

diagonal:  Solving for rho, Initial residual = 0, Final residual = 0, No Iterations 0
PIMPLE: iteration 1
DICPCG:  Solving for p_rgh, Initial residual = 0.00628634, Final residual = 5.91391e-05, No Iterations 202
diagonal:  Solving for rho, Initial residual = 0, Final residual = 0, No Iterations 0
time step continuity errors : sum local = 5.65308e-08, global = 3.49689e-14, cumulative = 1.06222e-12
DICPCG:  Solving for p_rgh, Initial residual = 0.00276195, Final residual = 9.46075e-08, No Iterations 301
diagonal:  Solving for rho, Initial residual = 0, Final residual = 0, No Iterations 0
time step continuity errors : sum local = 4.91367e-08, global = -1.30041e-14, cumulative = 1.04921e-12
ExecutionTime = 88.98 s  ClockTime = 92 s

Courant Number mean: 0.0193784 max: 0.485919
deltaT = 0.352633
Time = 5.7684

diagonal:  Solving for rho, Initial residual = 0, Final residual = 0, No Iterations 0
PIMPLE: iteration 1
DICPCG:  Solving for p_rgh, Initial residual = 0.00615115, Final residual = 5.66722e-05, No Iterations 195
diagonal:  Solving for rho, Initial residual = 0, Final residual = 0, No Iterations 0
time step continuity errors : sum local = 5.47766e-08, global = 3.05367e-14, cumulative = 1.07975e-12
DICPCG:  Solving for p_rgh, Initial residual = 0.00271705, Final residual = 9.86624e-08, No Iterations 295
diagonal:  Solving for rho, Initial residual = 0, Final residual = 0, No Iterations 0
time step continuity errors : sum local = 4.78041e-08, global = -1.72704e-15, cumulative = 1.07802e-12
ExecutionTime = 90.44 s  ClockTime = 94 s

Courant Number mean: 0.0190982 max: 0.463854
deltaT = 0.384691
Time = 6.15309

diagonal:  Solving for rho, Initial residual = 0, Final residual = 0, No Iterations 0
PIMPLE: iteration 1
DICPCG:  Solving for p_rgh, Initial residual = 0.00610464, Final residual = 6.08568e-05, No Iterations 120
diagonal:  Solving for rho, Initial residual = 0, Final residual = 0, No Iterations 0
time step continuity errors : sum local = 5.86901e-08, global = 1.45121e-14, cumulative = 1.09253e-12
DICPCG:  Solving for p_rgh, Initial residual = 0.00264311, Final residual = 9.81641e-08, No Iterations 297
diagonal:  Solving for rho, Initial residual = 0, Final residual = 0, No Iterations 0
time step continuity errors : sum local = 5.13937e-08, global = 3.71715e-14, cumulative = 1.12971e-12
ExecutionTime = 91.87 s  ClockTime = 95 s

Courant Number mean: 0.0205344 max: 0.483512
deltaT = 0.384691
Time = 6.53778

diagonal:  Solving for rho, Initial residual = 0, Final residual = 0, No Iterations 0
PIMPLE: iteration 1
DICPCG:  Solving for p_rgh, Initial residual = 0.00592994, Final residual = 5.79611e-05, No Iterations 116
diagonal:  Solving for rho, Initial residual = 0, Final residual = 0, No Iterations 0
time step continuity errors : sum local = 5.53814e-08, global = -4.11755e-14, cumulative = 1.08853e-12
DICPCG:  Solving for p_rgh, Initial residual = 0.00260752, Final residual = 9.26569e-08, No Iterations 301
diagonal:  Solving for rho, Initial residual = 0, Final residual = 0, No Iterations 0
time step continuity errors : sum local = 5.17018e-08, global = -8.96461e-15, cumulative = 1.07957e-12
ExecutionTime = 93.36 s  ClockTime = 97 s

Courant Number mean: 0.0202404 max: 0.462519
deltaT = 0.432777
Time = 6.97056

diagonal:  Solving for rho, Initial residual = 0, Final residual = 0, No Iterations 0
PIMPLE: iteration 1
DICPCG:  Solving for p_rgh, Initial residual = 0.00582947, Final residual = 5.82472e-05, No Iterations 111
diagonal:  Solving for rho, Initial residual = 0, Final residual = 0, No Iterations 0
time step continuity errors : sum local = 6.29974e-08, global = -2.05662e-14, cumulative = 1.059e-12
DICPCG:  Solving for p_rgh, Initial residual = 0.00248788, Final residual = 8.97693e-08, No Iterations 301
diagonal:  Solving for rho, Initial residual = 0, Final residual = 0, No Iterations 0
time step continuity errors : sum local = 5.96032e-08, global = -2.43046e-14, cumulative = 1.03469e-12
ExecutionTime = 94.75 s  ClockTime = 98 s

Courant Number mean: 0.0224457 max: 0.49821
deltaT = 0.432777
Time = 7.40334

diagonal:  Solving for rho, Initial residual = 0, Final residual = 0, No Iterations 0
PIMPLE: iteration 1
DICPCG:  Solving for p_rgh, Initial residual = 0.00568406, Final residual = 5.59726e-05, No Iterations 196
diagonal:  Solving for rho, Initial residual = 0, Final residual = 0, No Iterations 0
time step continuity errors : sum local = 6.85737e-08, global = 7.50528e-15, cumulative = 1.0422e-12
DICPCG:  Solving for p_rgh, Initial residual = 0.00247387, Final residual = 9.76917e-08, No Iterations 300
diagonal:  Solving for rho, Initial residual = 0, Final residual = 0, No Iterations 0
time step continuity errors : sum local = 5.9697e-08, global = 3.05451e-14, cumulative = 1.07275e-12
ExecutionTime = 96.27 s  ClockTime = 100 s

Courant Number mean: 0.0221267 max: 0.477533
deltaT = 0.432777
Time = 7.83612

diagonal:  Solving for rho, Initial residual = 0, Final residual = 0, No Iterations 0
PIMPLE: iteration 1
DICPCG:  Solving for p_rgh, Initial residual = 0.00558579, Final residual = 5.55512e-05, No Iterations 193
diagonal:  Solving for rho, Initial residual = 0, Final residual = 0, No Iterations 0
time step continuity errors : sum local = 6.74263e-08, global = -2.90548e-14, cumulative = 1.04369e-12
DICPCG:  Solving for p_rgh, Initial residual = 0.00242843, Final residual = 8.6056e-08, No Iterations 301
diagonal:  Solving for rho, Initial residual = 0, Final residual = 0, No Iterations 0
time step continuity errors : sum local = 5.90275e-08, global = -1.6881e-16, cumulative = 1.04352e-12
ExecutionTime = 97.66 s  ClockTime = 101 s

Courant Number mean: 0.0218132 max: 0.461385
deltaT = 0.432777
Time = 8.26889

diagonal:  Solving for rho, Initial residual = 0, Final residual = 0, No Iterations 0
PIMPLE: iteration 1
DICPCG:  Solving for p_rgh, Initial residual = 0.00554911, Final residual = 5.25177e-05, No Iterations 194
diagonal:  Solving for rho, Initial residual = 0, Final residual = 0, No Iterations 0
time step continuity errors : sum local = 6.5896e-08, global = -3.39933e-14, cumulative = 1.00953e-12
DICPCG:  Solving for p_rgh, Initial residual = 0.00240848, Final residual = 8.31844e-08, No Iterations 301
diagonal:  Solving for rho, Initial residual = 0, Final residual = 0, No Iterations 0
time step continuity errors : sum local = 5.87107e-08, global = -2.6829e-15, cumulative = 1.00685e-12
ExecutionTime = 99.17 s  ClockTime = 103 s

Courant Number mean: 0.0215049 max: 0.456683
deltaT = 0.432777
Time = 8.70167

diagonal:  Solving for rho, Initial residual = 0, Final residual = 0, No Iterations 0
PIMPLE: iteration 1
DICPCG:  Solving for p_rgh, Initial residual = 0.00552646, Final residual = 5.36683e-05, No Iterations 194
diagonal:  Solving for rho, Initial residual = 0, Final residual = 0, No Iterations 0
time step continuity errors : sum local = 6.61205e-08, global = -3.41621e-14, cumulative = 9.72683e-13
DICPCG:  Solving for p_rgh, Initial residual = 0.00239939, Final residual = 9.82888e-08, No Iterations 300
diagonal:  Solving for rho, Initial residual = 0, Final residual = 0, No Iterations 0
time step continuity errors : sum local = 5.82781e-08, global = -1.04495e-14, cumulative = 9.62234e-13
ExecutionTime = 100.8 s  ClockTime = 105 s

Courant Number mean: 0.0212012 max: 0.451948
deltaT = 0.432777
Time = 9.13445

diagonal:  Solving for rho, Initial residual = 0, Final residual = 0, No Iterations 0
PIMPLE: iteration 1
DICPCG:  Solving for p_rgh, Initial residual = 0.0054762, Final residual = 5.32856e-05, No Iterations 193
diagonal:  Solving for rho, Initial residual = 0, Final residual = 0, No Iterations 0
time step continuity errors : sum local = 6.51474e-08, global = -9.71213e-15, cumulative = 9.52522e-13
DICPCG:  Solving for p_rgh, Initial residual = 0.00237072, Final residual = 9.52334e-08, No Iterations 288
diagonal:  Solving for rho, Initial residual = 0, Final residual = 0, No Iterations 0
time step continuity errors : sum local = 5.7941e-08, global = 3.56078e-14, cumulative = 9.88129e-13
ExecutionTime = 102.31 s  ClockTime = 106 s

Courant Number mean: 0.0209023 max: 0.447159
deltaT = 0.432777
Time = 9.56722

diagonal:  Solving for rho, Initial residual = 0, Final residual = 0, No Iterations 0
PIMPLE: iteration 1
DICPCG:  Solving for p_rgh, Initial residual = 0.00539823, Final residual = 4.97311e-05, No Iterations 194
diagonal:  Solving for rho, Initial residual = 0, Final residual = 0, No Iterations 0
time step continuity errors : sum local = 6.34289e-08, global = -1.86764e-14, cumulative = 9.69453e-13
DICPCG:  Solving for p_rgh, Initial residual = 0.00234359, Final residual = 9.44162e-08, No Iterations 285
diagonal:  Solving for rho, Initial residual = 0, Final residual = 0, No Iterations 0
time step continuity errors : sum local = 5.82153e-08, global = -4.60107e-14, cumulative = 9.23442e-13
ExecutionTime = 103.73 s  ClockTime = 107 s

Courant Number mean: 0.020608 max: 0.442568
deltaT = 0.432777
Time = 10

diagonal:  Solving for rho, Initial residual = 0, Final residual = 0, No Iterations 0
PIMPLE: iteration 1
DICPCG:  Solving for p_rgh, Initial residual = 0.00532653, Final residual = 4.98238e-05, No Iterations 194
diagonal:  Solving for rho, Initial residual = 0, Final residual = 0, No Iterations 0
time step continuity errors : sum local = 6.28242e-08, global = 6.70848e-15, cumulative = 9.30151e-13
DICPCG:  Solving for p_rgh, Initial residual = 0.00230308, Final residual = 9.68108e-08, No Iterations 298
diagonal:  Solving for rho, Initial residual = 0, Final residual = 0, No Iterations 0
time step continuity errors : sum local = 5.75366e-08, global = 7.58725e-15, cumulative = 9.37738e-13
ExecutionTime = 105.81 s  ClockTime = 110 s

Courant Number mean: 0.0203185 max: 0.438185
deltaT = 0.47619
Time = 10.4762

diagonal:  Solving for rho, Initial residual = 0, Final residual = 0, No Iterations 0
PIMPLE: iteration 1
DICPCG:  Solving for p_rgh, Initial residual = 0.0052706, Final residual = 5.01986e-05, No Iterations 194
diagonal:  Solving for rho, Initial residual = 0, Final residual = 0, No Iterations 0
time step continuity errors : sum local = 6.8937e-08, global = 2.22133e-14, cumulative = 9.59951e-13
DICPCG:  Solving for p_rgh, Initial residual = 0.00222438, Final residual = 9.72326e-08, No Iterations 300
diagonal:  Solving for rho, Initial residual = 0, Final residual = 0, No Iterations 0
time step continuity errors : sum local = 6.35304e-08, global = -1.28822e-14, cumulative = 9.47069e-13
ExecutionTime = 107.31 s  ClockTime = 112 s

Courant Number mean: 0.0220427 max: 0.477275
deltaT = 0.501253
Time = 10.9774

diagonal:  Solving for rho, Initial residual = 0, Final residual = 0, No Iterations 0
PIMPLE: iteration 1
DICPCG:  Solving for p_rgh, Initial residual = 0.00511799, Final residual = 4.88885e-05, No Iterations 194
diagonal:  Solving for rho, Initial residual = 0, Final residual = 0, No Iterations 0
time step continuity errors : sum local = 7.15495e-08, global = 1.48155e-14, cumulative = 9.61885e-13
DICPCG:  Solving for p_rgh, Initial residual = 0.00219589, Final residual = 9.3764e-08, No Iterations 300
diagonal:  Solving for rho, Initial residual = 0, Final residual = 0, No Iterations 0
time step continuity errors : sum local = 6.71431e-08, global = 6.58893e-16, cumulative = 9.62544e-13
ExecutionTime = 108.88 s  ClockTime = 114 s

Courant Number mean: 0.0228769 max: 0.497323
deltaT = 0.501253
Time = 11.4787

diagonal:  Solving for rho, Initial residual = 0, Final residual = 0, No Iterations 0
PIMPLE: iteration 1
DICPCG:  Solving for p_rgh, Initial residual = 0.00503833, Final residual = 4.66651e-05, No Iterations 193
diagonal:  Solving for rho, Initial residual = 0, Final residual = 0, No Iterations 0
time step continuity errors : sum local = 7.0214e-08, global = -7.64475e-15, cumulative = 9.54899e-13
DICPCG:  Solving for p_rgh, Initial residual = 0.00217974, Final residual = 8.71245e-08, No Iterations 301
diagonal:  Solving for rho, Initial residual = 0, Final residual = 0, No Iterations 0
time step continuity errors : sum local = 6.86025e-08, global = 3.99169e-14, cumulative = 9.94816e-13
ExecutionTime = 110.52 s  ClockTime = 115 s

Courant Number mean: 0.0225561 max: 0.492275
deltaT = 0.501253
Time = 11.9799

diagonal:  Solving for rho, Initial residual = 0, Final residual = 0, No Iterations 0
PIMPLE: iteration 1
DICPCG:  Solving for p_rgh, Initial residual = 0.00496299, Final residual = 4.61632e-05, No Iterations 193
diagonal:  Solving for rho, Initial residual = 0, Final residual = 0, No Iterations 0
time step continuity errors : sum local = 6.99153e-08, global = -2.62228e-14, cumulative = 9.68593e-13
DICPCG:  Solving for p_rgh, Initial residual = 0.00216468, Final residual = 8.93664e-08, No Iterations 301
diagonal:  Solving for rho, Initial residual = 0, Final residual = 0, No Iterations 0
time step continuity errors : sum local = 6.20192e-08, global = 1.66434e-14, cumulative = 9.85236e-13
ExecutionTime = 112.36 s  ClockTime = 117 s

Courant Number mean: 0.0222401 max: 0.487217
deltaT = 0.501253
Time = 12.4812

diagonal:  Solving for rho, Initial residual = 0, Final residual = 0, No Iterations 0
PIMPLE: iteration 1
DICPCG:  Solving for p_rgh, Initial residual = 0.00487559, Final residual = 4.75525e-05, No Iterations 193
diagonal:  Solving for rho, Initial residual = 0, Final residual = 0, No Iterations 0
time step continuity errors : sum local = 6.9772e-08, global = -4.86227e-14, cumulative = 9.36613e-13
DICPCG:  Solving for p_rgh, Initial residual = 0.00214061, Final residual = 9.23485e-08, No Iterations 301
diagonal:  Solving for rho, Initial residual = 0, Final residual = 0, No Iterations 0
time step continuity errors : sum local = 6.75326e-08, global = -4.29425e-14, cumulative = 8.93671e-13
ExecutionTime = 114.45 s  ClockTime = 119 s

Courant Number mean: 0.0219292 max: 0.482156
deltaT = 0.537057
Time = 13.0183

diagonal:  Solving for rho, Initial residual = 0, Final residual = 0, No Iterations 0
PIMPLE: iteration 1
DICPCG:  Solving for p_rgh, Initial residual = 0.00485346, Final residual = 4.62935e-05, No Iterations 122
diagonal:  Solving for rho, Initial residual = 0, Final residual = 0, No Iterations 0
time step continuity errors : sum local = 6.82273e-08, global = 7.4585e-15, cumulative = 9.01129e-13
DICPCG:  Solving for p_rgh, Initial residual = 0.00209437, Final residual = 9.51943e-08, No Iterations 283
diagonal:  Solving for rho, Initial residual = 0, Final residual = 0, No Iterations 0
time step continuity errors : sum local = 7.25338e-08, global = 1.86545e-15, cumulative = 9.02995e-13
ExecutionTime = 115.7 s  ClockTime = 121 s

Courant Number mean: 0.0231674 max: 0.511152
deltaT = 0.537057
Time = 13.5553

diagonal:  Solving for rho, Initial residual = 0, Final residual = 0, No Iterations 0
PIMPLE: iteration 1
DICPCG:  Solving for p_rgh, Initial residual = 0.00477458, Final residual = 4.72466e-05, No Iterations 121
diagonal:  Solving for rho, Initial residual = 0, Final residual = 0, No Iterations 0
time step continuity errors : sum local = 6.83021e-08, global = 1.40509e-14, cumulative = 9.17046e-13
DICPCG:  Solving for p_rgh, Initial residual = 0.00208358, Final residual = 9.28658e-08, No Iterations 286
diagonal:  Solving for rho, Initial residual = 0, Final residual = 0, No Iterations 0
time step continuity errors : sum local = 7.15611e-08, global = 1.09685e-14, cumulative = 9.28014e-13
ExecutionTime = 117.49 s  ClockTime = 123 s

Courant Number mean: 0.0228442 max: 0.505722
deltaT = 0.537057
Time = 14.0924

diagonal:  Solving for rho, Initial residual = 0, Final residual = 0, No Iterations 0
PIMPLE: iteration 1
DICPCG:  Solving for p_rgh, Initial residual = 0.00468054, Final residual = 4.67942e-05, No Iterations 79
diagonal:  Solving for rho, Initial residual = 0, Final residual = 0, No Iterations 0
time step continuity errors : sum local = 6.36624e-08, global = -1.9742e-14, cumulative = 9.08272e-13
DICPCG:  Solving for p_rgh, Initial residual = 0.0020485, Final residual = 9.50135e-08, No Iterations 301
diagonal:  Solving for rho, Initial residual = 0, Final residual = 0, No Iterations 0
time step continuity errors : sum local = 7.4339e-08, global = 4.38539e-15, cumulative = 9.12658e-13
ExecutionTime = 119.23 s  ClockTime = 125 s

Courant Number mean: 0.0225259 max: 0.500287
deltaT = 0.537057
Time = 14.6294

diagonal:  Solving for rho, Initial residual = 0, Final residual = 0, No Iterations 0
PIMPLE: iteration 1
DICPCG:  Solving for p_rgh, Initial residual = 0.0046889, Final residual = 4.63279e-05, No Iterations 76
diagonal:  Solving for rho, Initial residual = 0, Final residual = 0, No Iterations 0
time step continuity errors : sum local = 6.23462e-08, global = -4.03237e-14, cumulative = 8.72334e-13
DICPCG:  Solving for p_rgh, Initial residual = 0.00203289, Final residual = 9.3073e-08, No Iterations 301
diagonal:  Solving for rho, Initial residual = 0, Final residual = 0, No Iterations 0
time step continuity errors : sum local = 7.35993e-08, global = -2.26796e-14, cumulative = 8.49654e-13
ExecutionTime = 120.89 s  ClockTime = 127 s

Courant Number mean: 0.0222123 max: 0.494877
deltaT = 0.537057
Time = 15.1665

diagonal:  Solving for rho, Initial residual = 0, Final residual = 0, No Iterations 0
PIMPLE: iteration 1
DICPCG:  Solving for p_rgh, Initial residual = 0.00466116, Final residual = 4.57467e-05, No Iterations 74
diagonal:  Solving for rho, Initial residual = 0, Final residual = 0, No Iterations 0
time step continuity errors : sum local = 6.07218e-08, global = 2.23018e-14, cumulative = 8.71956e-13
DICPCG:  Solving for p_rgh, Initial residual = 0.00202676, Final residual = 9.32531e-08, No Iterations 301
diagonal:  Solving for rho, Initial residual = 0, Final residual = 0, No Iterations 0
time step continuity errors : sum local = 7.30751e-08, global = 1.39358e-14, cumulative = 8.85892e-13
ExecutionTime = 122.47 s  ClockTime = 128 s

Courant Number mean: 0.0219033 max: 0.489461
deltaT = 0.537057
Time = 15.7035

diagonal:  Solving for rho, Initial residual = 0, Final residual = 0, No Iterations 0
PIMPLE: iteration 1
DICPCG:  Solving for p_rgh, Initial residual = 0.00460019, Final residual = 4.56731e-05, No Iterations 74
diagonal:  Solving for rho, Initial residual = 0, Final residual = 0, No Iterations 0
time step continuity errors : sum local = 6.11362e-08, global = -2.05435e-15, cumulative = 8.83838e-13
DICPCG:  Solving for p_rgh, Initial residual = 0.00200876, Final residual = 9.52051e-08, No Iterations 301
diagonal:  Solving for rho, Initial residual = 0, Final residual = 0, No Iterations 0
time step continuity errors : sum local = 7.40312e-08, global = 5.79968e-15, cumulative = 8.89637e-13
ExecutionTime = 123.63 s  ClockTime = 129 s

Courant Number mean: 0.0215989 max: 0.48405
deltaT = 0.537057
Time = 16.2406

diagonal:  Solving for rho, Initial residual = 0, Final residual = 0, No Iterations 0
PIMPLE: iteration 1
DICPCG:  Solving for p_rgh, Initial residual = 0.00453793, Final residual = 4.4806e-05, No Iterations 59
diagonal:  Solving for rho, Initial residual = 0, Final residual = 0, No Iterations 0
time step continuity errors : sum local = 5.76972e-08, global = 1.45661e-15, cumulative = 8.91094e-13
DICPCG:  Solving for p_rgh, Initial residual = 0.0019861, Final residual = 9.06904e-08, No Iterations 301
diagonal:  Solving for rho, Initial residual = 0, Final residual = 0, No Iterations 0
time step continuity errors : sum local = 7.39644e-08, global = -2.39385e-14, cumulative = 8.67155e-13
ExecutionTime = 124.88 s  ClockTime = 131 s

Courant Number mean: 0.0212993 max: 0.478769
deltaT = 0.537057
Time = 16.7777

diagonal:  Solving for rho, Initial residual = 0, Final residual = 0, No Iterations 0
PIMPLE: iteration 1
DICPCG:  Solving for p_rgh, Initial residual = 0.00451224, Final residual = 4.43153e-05, No Iterations 51
diagonal:  Solving for rho, Initial residual = 0, Final residual = 0, No Iterations 0
time step continuity errors : sum local = 5.54346e-08, global = 1.50846e-14, cumulative = 8.8224e-13
DICPCG:  Solving for p_rgh, Initial residual = 0.00195984, Final residual = 9.69036e-08, No Iterations 301
diagonal:  Solving for rho, Initial residual = 0, Final residual = 0, No Iterations 0
time step continuity errors : sum local = 7.27938e-08, global = 4.41138e-17, cumulative = 8.82284e-13
ExecutionTime = 125.99 s  ClockTime = 132 s

Courant Number mean: 0.021004 max: 0.473808
deltaT = 0.537057
Time = 17.3147

diagonal:  Solving for rho, Initial residual = 0, Final residual = 0, No Iterations 0
PIMPLE: iteration 1
DICPCG:  Solving for p_rgh, Initial residual = 0.00449219, Final residual = 4.4124e-05, No Iterations 49
diagonal:  Solving for rho, Initial residual = 0, Final residual = 0, No Iterations 0
time step continuity errors : sum local = 5.39764e-08, global = 4.0281e-14, cumulative = 9.22565e-13
DICPCG:  Solving for p_rgh, Initial residual = 0.00193935, Final residual = 9.76333e-08, No Iterations 301
diagonal:  Solving for rho, Initial residual = 0, Final residual = 0, No Iterations 0
time step continuity errors : sum local = 7.35178e-08, global = -2.62012e-14, cumulative = 8.96364e-13
ExecutionTime = 127.17 s  ClockTime = 133 s

Courant Number mean: 0.0207127 max: 0.468887
deltaT = 0.537057
Time = 17.8518

diagonal:  Solving for rho, Initial residual = 0, Final residual = 0, No Iterations 0
PIMPLE: iteration 1
DICPCG:  Solving for p_rgh, Initial residual = 0.00441098, Final residual = 4.15806e-05, No Iterations 49
diagonal:  Solving for rho, Initial residual = 0, Final residual = 0, No Iterations 0
time step continuity errors : sum local = 5.21698e-08, global = 1.89052e-14, cumulative = 9.15269e-13
DICPCG:  Solving for p_rgh, Initial residual = 0.00191866, Final residual = 9.92137e-08, No Iterations 301
diagonal:  Solving for rho, Initial residual = 0, Final residual = 0, No Iterations 0
time step continuity errors : sum local = 7.36429e-08, global = 3.4737e-14, cumulative = 9.50006e-13
ExecutionTime = 128.76 s  ClockTime = 135 s

Courant Number mean: 0.0204251 max: 0.46404
deltaT = 0.537057
Time = 18.3888

diagonal:  Solving for rho, Initial residual = 0, Final residual = 0, No Iterations 0
PIMPLE: iteration 1
DICPCG:  Solving for p_rgh, Initial residual = 0.00432302, Final residual = 4.21633e-05, No Iterations 47
diagonal:  Solving for rho, Initial residual = 0, Final residual = 0, No Iterations 0
[...]
DICPCG:  Solving for p_rgh, Initial residual = 0.000856769, Final residual = 9.29909e-08, No Iterations 294
diagonal:  Solving for rho, Initial residual = 0, Final residual = 0, No Iterations 0
time step continuity errors : sum local = 1.29307e-07, global = -4.57651e-14, cumulative = 8.62278e-13
ExecutionTime = 207.84 s  ClockTime = 218 s

Courant Number mean: 0.0163062 max: 0.434752
deltaT = 1.11111
Time = 71.1111

diagonal:  Solving for rho, Initial residual = 0, Final residual = 0, No Iterations 0
PIMPLE: iteration 1
DICPCG:  Solving for p_rgh, Initial residual = 0.00157171, Final residual = 1.55357e-05, No Iterations 84
diagonal:  Solving for rho, Initial residual = 0, Final residual = 0, No Iterations 0
time step continuity errors : sum local = 8.70505e-08, global = 3.57327e-14, cumulative = 8.9801e-13
DICPCG:  Solving for p_rgh, Initial residual = 0.0008247, Final residual = 9.5032e-08, No Iterations 295
diagonal:  Solving for rho, Initial residual = 0, Final residual = 0, No Iterations 0
time step continuity errors : sum local = 1.44078e-07, global = -1.92066e-14, cumulative = 8.78804e-13
ExecutionTime = 208.95 s  ClockTime = 219 s

Courant Number mean: 0.0179762 max: 0.477791
deltaT = 1.11111
Time = 72.2222

diagonal:  Solving for rho, Initial residual = 0, Final residual = 0, No Iterations 0
PIMPLE: iteration 1
DICPCG:  Solving for p_rgh, Initial residual = 0.00143589, Final residual = 1.34604e-05, No Iterations 191
diagonal:  Solving for rho, Initial residual = 0, Final residual = 0, No Iterations 0
time step continuity errors : sum local = 1.26164e-07, global = 1.03156e-13, cumulative = 9.81959e-13
DICPCG:  Solving for p_rgh, Initial residual = 0.000835064, Final residual = 8.41937e-08, No Iterations 294
diagonal:  Solving for rho, Initial residual = 0, Final residual = 0, No Iterations 0
time step continuity errors : sum local = 1.45942e-07, global = 2.69235e-14, cumulative = 1.00888e-12
ExecutionTime = 210.26 s  ClockTime = 221 s

Courant Number mean: 0.0178379 max: 0.472734
deltaT = 1.11111
Time = 73.3333

diagonal:  Solving for rho, Initial residual = 0, Final residual = 0, No Iterations 0
PIMPLE: iteration 1
DICPCG:  Solving for p_rgh, Initial residual = 0.00136947, Final residual = 1.36942e-05, No Iterations 192
diagonal:  Solving for rho, Initial residual = 0, Final residual = 0, No Iterations 0
time step continuity errors : sum local = 1.26465e-07, global = 9.91769e-14, cumulative = 1.10806e-12
DICPCG:  Solving for p_rgh, Initial residual = 0.000812903, Final residual = 8.68589e-08, No Iterations 294
diagonal:  Solving for rho, Initial residual = 0, Final residual = 0, No Iterations 0
time step continuity errors : sum local = 1.47223e-07, global = 5.25648e-14, cumulative = 1.16062e-12
ExecutionTime = 211.6 s  ClockTime = 222 s

Courant Number mean: 0.0177033 max: 0.467805
deltaT = 1.11111
Time = 74.4444

diagonal:  Solving for rho, Initial residual = 0, Final residual = 0, No Iterations 0
PIMPLE: iteration 1
DICPCG:  Solving for p_rgh, Initial residual = 0.00133898, Final residual = 1.20862e-05, No Iterations 191
diagonal:  Solving for rho, Initial residual = 0, Final residual = 0, No Iterations 0
time step continuity errors : sum local = 1.25289e-07, global = -7.75359e-14, cumulative = 1.08309e-12
DICPCG:  Solving for p_rgh, Initial residual = 0.000798789, Final residual = 9.64528e-08, No Iterations 293
diagonal:  Solving for rho, Initial residual = 0, Final residual = 0, No Iterations 0
time step continuity errors : sum local = 1.45857e-07, global = -2.95664e-14, cumulative = 1.05352e-12
ExecutionTime = 213.02 s  ClockTime = 223 s

Courant Number mean: 0.0175717 max: 0.462921
deltaT = 1.11111
Time = 75.5556

diagonal:  Solving for rho, Initial residual = 0, Final residual = 0, No Iterations 0
PIMPLE: iteration 1
DICPCG:  Solving for p_rgh, Initial residual = 0.00131169, Final residual = 1.26882e-05, No Iterations 194
diagonal:  Solving for rho, Initial residual = 0, Final residual = 0, No Iterations 0
time step continuity errors : sum local = 1.2506e-07, global = 8.67577e-15, cumulative = 1.0622e-12
DICPCG:  Solving for p_rgh, Initial residual = 0.000784384, Final residual = 9.4509e-08, No Iterations 293
diagonal:  Solving for rho, Initial residual = 0, Final residual = 0, No Iterations 0
time step continuity errors : sum local = 1.47848e-07, global = -1.57141e-14, cumulative = 1.04648e-12
ExecutionTime = 214.44 s  ClockTime = 225 s

Courant Number mean: 0.0174433 max: 0.458084
deltaT = 1.11111
Time = 76.6667

diagonal:  Solving for rho, Initial residual = 0, Final residual = 0, No Iterations 0
PIMPLE: iteration 1
DICPCG:  Solving for p_rgh, Initial residual = 0.00128959, Final residual = 1.28667e-05, No Iterations 190
diagonal:  Solving for rho, Initial residual = 0, Final residual = 0, No Iterations 0
time step continuity errors : sum local = 1.23956e-07, global = 4.26659e-14, cumulative = 1.08915e-12
DICPCG:  Solving for p_rgh, Initial residual = 0.000774331, Final residual = 8.70208e-08, No Iterations 293
diagonal:  Solving for rho, Initial residual = 0, Final residual = 0, No Iterations 0
time step continuity errors : sum local = 1.48646e-07, global = 6.41361e-16, cumulative = 1.08979e-12
ExecutionTime = 215.89 s  ClockTime = 226 s

Courant Number mean: 0.0173179 max: 0.453295
deltaT = 1.11111
Time = 77.7778

diagonal:  Solving for rho, Initial residual = 0, Final residual = 0, No Iterations 0
PIMPLE: iteration 1
DICPCG:  Solving for p_rgh, Initial residual = 0.00126661, Final residual = 1.25594e-05, No Iterations 193
diagonal:  Solving for rho, Initial residual = 0, Final residual = 0, No Iterations 0
time step continuity errors : sum local = 1.24267e-07, global = 2.8125e-14, cumulative = 1.11792e-12
DICPCG:  Solving for p_rgh, Initial residual = 0.000762983, Final residual = 9.49574e-08, No Iterations 293
diagonal:  Solving for rho, Initial residual = 0, Final residual = 0, No Iterations 0
time step continuity errors : sum local = 1.45714e-07, global = 2.41108e-14, cumulative = 1.14203e-12
ExecutionTime = 217.19 s  ClockTime = 228 s

Courant Number mean: 0.0171955 max: 0.448553
deltaT = 1.11111
Time = 78.8889

diagonal:  Solving for rho, Initial residual = 0, Final residual = 0, No Iterations 0
PIMPLE: iteration 1
DICPCG:  Solving for p_rgh, Initial residual = 0.00123999, Final residual = 1.22046e-05, No Iterations 188
diagonal:  Solving for rho, Initial residual = 0, Final residual = 0, No Iterations 0
time step continuity errors : sum local = 1.23897e-07, global = 9.82825e-16, cumulative = 1.14301e-12
DICPCG:  Solving for p_rgh, Initial residual = 0.000750878, Final residual = 8.53147e-08, No Iterations 293
diagonal:  Solving for rho, Initial residual = 0, Final residual = 0, No Iterations 0
time step continuity errors : sum local = 1.47247e-07, global = -2.31389e-14, cumulative = 1.11987e-12
ExecutionTime = 218.49 s  ClockTime = 229 s

Courant Number mean: 0.0170759 max: 0.443856
deltaT = 1.11111
Time = 80

diagonal:  Solving for rho, Initial residual = 0, Final residual = 0, No Iterations 0
PIMPLE: iteration 1
DICPCG:  Solving for p_rgh, Initial residual = 0.00121601, Final residual = 1.1399e-05, No Iterations 191
diagonal:  Solving for rho, Initial residual = 0, Final residual = 0, No Iterations 0
time step continuity errors : sum local = 1.26917e-07, global = 3.33716e-15, cumulative = 1.12321e-12
DICPCG:  Solving for p_rgh, Initial residual = 0.00074336, Final residual = 9.36285e-08, No Iterations 293
diagonal:  Solving for rho, Initial residual = 0, Final residual = 0, No Iterations 0
time step continuity errors : sum local = 1.47466e-07, global = 1.30776e-14, cumulative = 1.13629e-12
ExecutionTime = 220.47 s  ClockTime = 232 s

Courant Number mean: 0.0169589 max: 0.439215
deltaT = 1.25
Time = 81.25

diagonal:  Solving for rho, Initial residual = 0, Final residual = 0, No Iterations 0
PIMPLE: iteration 1
DICPCG:  Solving for p_rgh, Initial residual = 0.00123166, Final residual = 1.23027e-05, No Iterations 166
diagonal:  Solving for rho, Initial residual = 0, Final residual = 0, No Iterations 0
time step continuity errors : sum local = 1.34555e-07, global = 1.11256e-14, cumulative = 1.14741e-12
DICPCG:  Solving for p_rgh, Initial residual = 0.000721096, Final residual = 9.87515e-08, No Iterations 293
diagonal:  Solving for rho, Initial residual = 0, Final residual = 0, No Iterations 0
time step continuity errors : sum local = 1.665e-07, global = -2.98387e-14, cumulative = 1.11757e-12
ExecutionTime = 221.8 s  ClockTime = 233 s

Courant Number mean: 0.0189497 max: 0.488956
deltaT = 1.25
Time = 82.5

diagonal:  Solving for rho, Initial residual = 0, Final residual = 0, No Iterations 0
PIMPLE: iteration 1
DICPCG:  Solving for p_rgh, Initial residual = 0.00116349, Final residual = 1.14866e-05, No Iterations 196
diagonal:  Solving for rho, Initial residual = 0, Final residual = 0, No Iterations 0
time step continuity errors : sum local = 1.44813e-07, global = 2.05083e-14, cumulative = 1.13808e-12
DICPCG:  Solving for p_rgh, Initial residual = 0.000717777, Final residual = 9.80543e-08, No Iterations 292
diagonal:  Solving for rho, Initial residual = 0, Final residual = 0, No Iterations 0
time step continuity errors : sum local = 1.67854e-07, global = 3.93219e-14, cumulative = 1.1774e-12
ExecutionTime = 223.13 s  ClockTime = 234 s

Courant Number mean: 0.0188238 max: 0.483817
deltaT = 1.25
Time = 83.75

diagonal:  Solving for rho, Initial residual = 0, Final residual = 0, No Iterations 0
PIMPLE: iteration 1
DICPCG:  Solving for p_rgh, Initial residual = 0.00114184, Final residual = 1.12193e-05, No Iterations 197
diagonal:  Solving for rho, Initial residual = 0, Final residual = 0, No Iterations 0
time step continuity errors : sum local = 1.43608e-07, global = -2.07788e-14, cumulative = 1.15662e-12
DICPCG:  Solving for p_rgh, Initial residual = 0.000705966, Final residual = 8.93052e-08, No Iterations 293
diagonal:  Solving for rho, Initial residual = 0, Final residual = 0, No Iterations 0
time step continuity errors : sum local = 1.65104e-07, global = -6.51877e-14, cumulative = 1.09144e-12
ExecutionTime = 224.53 s  ClockTime = 236 s

Courant Number mean: 0.0187003 max: 0.478741
deltaT = 1.25
Time = 85

diagonal:  Solving for rho, Initial residual = 0, Final residual = 0, No Iterations 0
PIMPLE: iteration 1
DICPCG:  Solving for p_rgh, Initial residual = 0.00112078, Final residual = 1.11864e-05, No Iterations 198
diagonal:  Solving for rho, Initial residual = 0, Final residual = 0, No Iterations 0
time step continuity errors : sum local = 1.4495e-07, global = 2.42072e-14, cumulative = 1.11564e-12
DICPCG:  Solving for p_rgh, Initial residual = 0.000697081, Final residual = 8.70039e-08, No Iterations 292
diagonal:  Solving for rho, Initial residual = 0, Final residual = 0, No Iterations 0
time step continuity errors : sum local = 1.64692e-07, global = 4.89642e-14, cumulative = 1.16461e-12
ExecutionTime = 225.97 s  ClockTime = 237 s

Courant Number mean: 0.018579 max: 0.473717
deltaT = 1.25
Time = 86.25

diagonal:  Solving for rho, Initial residual = 0, Final residual = 0, No Iterations 0
PIMPLE: iteration 1
DICPCG:  Solving for p_rgh, Initial residual = 0.00109494, Final residual = 1.09461e-05, No Iterations 184
diagonal:  Solving for rho, Initial residual = 0, Final residual = 0, No Iterations 0
time step continuity errors : sum local = 1.42598e-07, global = 2.19181e-14, cumulative = 1.18653e-12
DICPCG:  Solving for p_rgh, Initial residual = 0.000684144, Final residual = 8.78236e-08, No Iterations 292
diagonal:  Solving for rho, Initial residual = 0, Final residual = 0, No Iterations 0
time step continuity errors : sum local = 1.63272e-07, global = -2.5323e-14, cumulative = 1.1612e-12
ExecutionTime = 227.34 s  ClockTime = 239 s

Courant Number mean: 0.0184598 max: 0.468744
deltaT = 1.25
Time = 87.5

diagonal:  Solving for rho, Initial residual = 0, Final residual = 0, No Iterations 0
PIMPLE: iteration 1
DICPCG:  Solving for p_rgh, Initial residual = 0.00107289, Final residual = 1.05823e-05, No Iterations 191
diagonal:  Solving for rho, Initial residual = 0, Final residual = 0, No Iterations 0
time step continuity errors : sum local = 1.44246e-07, global = 2.51205e-14, cumulative = 1.18632e-12
DICPCG:  Solving for p_rgh, Initial residual = 0.000677039, Final residual = 9.87394e-08, No Iterations 292
diagonal:  Solving for rho, Initial residual = 0, Final residual = 0, No Iterations 0
time step continuity errors : sum local = 1.66575e-07, global = 5.83048e-14, cumulative = 1.24463e-12
ExecutionTime = 228.85 s  ClockTime = 240 s

Courant Number mean: 0.0183428 max: 0.46383
deltaT = 1.25
Time = 88.75

diagonal:  Solving for rho, Initial residual = 0, Final residual = 0, No Iterations 0
PIMPLE: iteration 1
DICPCG:  Solving for p_rgh, Initial residual = 0.0010529, Final residual = 1.00443e-05, No Iterations 194
diagonal:  Solving for rho, Initial residual = 0, Final residual = 0, No Iterations 0
time step continuity errors : sum local = 1.44056e-07, global = -6.31948e-14, cumulative = 1.18143e-12
DICPCG:  Solving for p_rgh, Initial residual = 0.000665361, Final residual = 8.81202e-08, No Iterations 292
diagonal:  Solving for rho, Initial residual = 0, Final residual = 0, No Iterations 0
time step continuity errors : sum local = 1.65885e-07, global = -1.58795e-15, cumulative = 1.17985e-12
ExecutionTime = 230.25 s  ClockTime = 242 s

Courant Number mean: 0.0182277 max: 0.458967
deltaT = 1.25
Time = 90

diagonal:  Solving for rho, Initial residual = 0, Final residual = 0, No Iterations 0
PIMPLE: iteration 1
DICPCG:  Solving for p_rgh, Initial residual = 0.00103283, Final residual = 1.03056e-05, No Iterations 197
diagonal:  Solving for rho, Initial residual = 0, Final residual = 0, No Iterations 0
time step continuity errors : sum local = 1.44641e-07, global = 4.97568e-15, cumulative = 1.18482e-12
DICPCG:  Solving for p_rgh, Initial residual = 0.000657437, Final residual = 9.80439e-08, No Iterations 292
diagonal:  Solving for rho, Initial residual = 0, Final residual = 0, No Iterations 0
time step continuity errors : sum local = 1.65292e-07, global = 7.61057e-15, cumulative = 1.19243e-12
ExecutionTime = 232.23 s  ClockTime = 244 s

Courant Number mean: 0.0181146 max: 0.454151
deltaT = 1.42857
Time = 91.4286

diagonal:  Solving for rho, Initial residual = 0, Final residual = 0, No Iterations 0
PIMPLE: iteration 1
DICPCG:  Solving for p_rgh, Initial residual = 0.00104942, Final residual = 1.04146e-05, No Iterations 201
diagonal:  Solving for rho, Initial residual = 0, Final residual = 0, No Iterations 0
time step continuity errors : sum local = 1.71926e-07, global = -1.32595e-15, cumulative = 1.19111e-12
DICPCG:  Solving for p_rgh, Initial residual = 0.000648197, Final residual = 8.80729e-08, No Iterations 293
diagonal:  Solving for rho, Initial residual = 0, Final residual = 0, No Iterations 0
time step continuity errors : sum local = 1.88199e-07, global = -4.26689e-14, cumulative = 1.14844e-12
ExecutionTime = 233.67 s  ClockTime = 246 s

Courant Number mean: 0.0205758 max: 0.513501
deltaT = 1.42857
Time = 92.8571

diagonal:  Solving for rho, Initial residual = 0, Final residual = 0, No Iterations 0
PIMPLE: iteration 1
DICPCG:  Solving for p_rgh, Initial residual = 0.000987968, Final residual = 9.14877e-06, No Iterations 203
diagonal:  Solving for rho, Initial residual = 0, Final residual = 0, No Iterations 0
time step continuity errors : sum local = 1.72033e-07, global = -8.89522e-15, cumulative = 1.13954e-12
DICPCG:  Solving for p_rgh, Initial residual = 0.000638176, Final residual = 9.48532e-08, No Iterations 292
diagonal:  Solving for rho, Initial residual = 0, Final residual = 0, No Iterations 0
time step continuity errors : sum local = 1.91438e-07, global = 4.41327e-14, cumulative = 1.18367e-12
ExecutionTime = 235 s  ClockTime = 247 s

Courant Number mean: 0.0204506 max: 0.508135
deltaT = 1.42857
Time = 94.2857

diagonal:  Solving for rho, Initial residual = 0, Final residual = 0, No Iterations 0
PIMPLE: iteration 1
DICPCG:  Solving for p_rgh, Initial residual = 0.000969266, Final residual = 9.42611e-06, No Iterations 202
diagonal:  Solving for rho, Initial residual = 0, Final residual = 0, No Iterations 0
time step continuity errors : sum local = 1.71039e-07, global = -7.66336e-14, cumulative = 1.10704e-12
DICPCG:  Solving for p_rgh, Initial residual = 0.000628528, Final residual = 9.76368e-08, No Iterations 292
diagonal:  Solving for rho, Initial residual = 0, Final residual = 0, No Iterations 0
time step continuity errors : sum local = 1.89267e-07, global = -1.1435e-13, cumulative = 9.92691e-13
ExecutionTime = 236.34 s  ClockTime = 248 s

Courant Number mean: 0.0203274 max: 0.502811
deltaT = 1.42857
Time = 95.7143

diagonal:  Solving for rho, Initial residual = 0, Final residual = 0, No Iterations 0
PIMPLE: iteration 1
DICPCG:  Solving for p_rgh, Initial residual = 0.000950935, Final residual = 9.3682e-06, No Iterations 197
diagonal:  Solving for rho, Initial residual = 0, Final residual = 0, No Iterations 0
time step continuity errors : sum local = 1.70263e-07, global = 6.32565e-14, cumulative = 1.05595e-12
DICPCG:  Solving for p_rgh, Initial residual = 0.00061817, Final residual = 9.91224e-08, No Iterations 292
diagonal:  Solving for rho, Initial residual = 0, Final residual = 0, No Iterations 0
time step continuity errors : sum local = 1.87863e-07, global = 5.70808e-14, cumulative = 1.11303e-12
ExecutionTime = 237.74 s  ClockTime = 250 s

Courant Number mean: 0.0202062 max: 0.497539
deltaT = 1.42857
Time = 97.1429

diagonal:  Solving for rho, Initial residual = 0, Final residual = 0, No Iterations 0
PIMPLE: iteration 1
DICPCG:  Solving for p_rgh, Initial residual = 0.000930911, Final residual = 8.86662e-06, No Iterations 203
diagonal:  Solving for rho, Initial residual = 0, Final residual = 0, No Iterations 0
time step continuity errors : sum local = 1.71834e-07, global = 2.64495e-14, cumulative = 1.13948e-12
DICPCG:  Solving for p_rgh, Initial residual = 0.000611564, Final residual = 9.56216e-08, No Iterations 292
diagonal:  Solving for rho, Initial residual = 0, Final residual = 0, No Iterations 0
time step continuity errors : sum local = 1.92819e-07, global = 2.06079e-14, cumulative = 1.16009e-12
ExecutionTime = 239.11 s  ClockTime = 251 s

Courant Number mean: 0.0200867 max: 0.49233
deltaT = 1.42857
Time = 98.5714

diagonal:  Solving for rho, Initial residual = 0, Final residual = 0, No Iterations 0
PIMPLE: iteration 1
DICPCG:  Solving for p_rgh, Initial residual = 0.000916121, Final residual = 9.15818e-06, No Iterations 201
diagonal:  Solving for rho, Initial residual = 0, Final residual = 0, No Iterations 0
time step continuity errors : sum local = 1.70341e-07, global = 3.85533e-14, cumulative = 1.19864e-12
DICPCG:  Solving for p_rgh, Initial residual = 0.000602269, Final residual = 9.2427e-08, No Iterations 292
diagonal:  Solving for rho, Initial residual = 0, Final residual = 0, No Iterations 0
time step continuity errors : sum local = 1.88576e-07, global = 1.88758e-15, cumulative = 1.20053e-12
ExecutionTime = 240.45 s  ClockTime = 253 s

Courant Number mean: 0.0199692 max: 0.487175
deltaT = 1.42857
Time = 100

diagonal:  Solving for rho, Initial residual = 0, Final residual = 0, No Iterations 0
PIMPLE: iteration 1
DICPCG:  Solving for p_rgh, Initial residual = 0.00089743, Final residual = 8.66884e-06, No Iterations 202
diagonal:  Solving for rho, Initial residual = 0, Final residual = 0, No Iterations 0
time step continuity errors : sum local = 1.72342e-07, global = 1.31391e-17, cumulative = 1.20054e-12
DICPCG:  Solving for p_rgh, Initial residual = 0.000594972, Final residual = 9.0405e-08, No Iterations 292
diagonal:  Solving for rho, Initial residual = 0, Final residual = 0, No Iterations 0
time step continuity errors : sum local = 1.85652e-07, global = 1.7138e-15, cumulative = 1.20225e-12
ExecutionTime = 242.42 s  ClockTime = 255 s

End

