/*---------------------------------------------------------------------------*\
| =========                 |                                                 |
| \\      /  F ield         | OpenFOAM: The Open Source CFD Toolbox           |
|  \\    /   O peration     | Version:  v2012                                 |
|   \\  /    A nd           | Website:  www.openfoam.com                      |
|    \\/     M anipulation  |                                                 |
\*---------------------------------------------------------------------------*/
Build  : _7bdb509494-20201222 OPENFOAM=2012
Arch   : "LSB;label=32;scalar=64"
Exec   : buoyantPimpleFoam
Date   : Aug 05 2021
Time   : 18:50:01
Host   : DESKTOP-DOBVM7I
PID    : 967
I/O    : uncollated
Case   : /mnt/c/Users/TSam/tutorials/heatTransfer/buoyantPimpleFoam/hotRoom
nProcs : 1
trapFpe: Floating point exception trapping enabled (FOAM_SIGFPE).
fileModificationChecking : Monitoring run-time modified files using timeStampMaster (fileModificationSkew 5, maxFileModificationPolls 20)
allowSystemOperations : Allowing user-supplied system call operations

// * * * * * * * * * * * * * * * * * * * * * * * * * * * * * * * * * * * * * //
Create time

Create mesh for time = 0


PIMPLE: Operating solver in PISO mode

Reading thermophysical properties

Selecting thermodynamics package 
{
    type            heRhoThermo;
    mixture         pureMixture;
    transport       const;
    thermo          hConst;
    equationOfState perfectGas;
    specie          specie;
    energy          sensibleEnthalpy;
}

Reading field U

Reading/calculating face flux field phi

Creating turbulence model

Selecting turbulence model type RAS
Selecting RAS turbulence model kEpsilon
RAS
{
    RASModel        kEpsilon;
    turbulence      on;
    printCoeffs     on;
    Cmu             0.09;
    C1              1.44;
    C2              1.92;
    C3              0;
    sigmak          1;
    sigmaEps        1.3;
}


Reading g

Reading hRef
Calculating field g.h

Reading field p_rgh

Creating field dpdt

Creating field kinetic energy K

No MRF models present

Radiation model not active: radiationProperties not found
Selecting radiationModel none
No finite volume options present
Courant Number mean: 0 max: 0

Starting time loop

Selecting heat transfer coefficient model fixedReferenceTemperature
Courant Number mean: 0 max: 0
Time = 2

diagonal:  Solving for rho, Initial residual = 0, Final residual = 0, No Iterations 0
PIMPLE: iteration 1
DILUPBiCGStab:  Solving for Ux, Initial residual = 0, Final residual = 0, No Iterations 0
DILUPBiCGStab:  Solving for Uy, Initial residual = 1, Final residual = 6.37852e-07, No Iterations 4
DILUPBiCGStab:  Solving for Uz, Initial residual = 0, Final residual = 0, No Iterations 0
DILUPBiCGStab:  Solving for h, Initial residual = 1, Final residual = 3.0649e-07, No Iterations 4
DICPCG:  Solving for p_rgh, Initial residual = 0.962645, Final residual = 0.0091504, No Iterations 27
diagonal:  Solving for rho, Initial residual = 0, Final residual = 0, No Iterations 0
time step continuity errors : sum local = 0.149735, global = -1.90016e-14, cumulative = -1.90016e-14
DICPCG:  Solving for p_rgh, Initial residual = 0.783119, Final residual = 6.53607e-09, No Iterations 47
diagonal:  Solving for rho, Initial residual = 0, Final residual = 0, No Iterations 0
time step continuity errors : sum local = 0.00161142, global = -1.69538e-14, cumulative = -3.59554e-14
DILUPBiCGStab:  Solving for epsilon, Initial residual = 0.143779, Final residual = 5.37471e-07, No Iterations 4
DILUPBiCGStab:  Solving for k, Initial residual = 1, Final residual = 3.03897e-07, No Iterations 5
ExecutionTime = 0.54 s  ClockTime = 3 s

Courant Number mean: 2.67399 max: 11.4356
Time = 4

diagonal:  Solving for rho, Initial residual = 0, Final residual = 0, No Iterations 0
PIMPLE: iteration 1
DILUPBiCGStab:  Solving for Ux, Initial residual = 0.562144, Final residual = 2.3441e-07, No Iterations 6
DILUPBiCGStab:  Solving for Uy, Initial residual = 0.6671, Final residual = 5.71628e-07, No Iterations 5
DILUPBiCGStab:  Solving for Uz, Initial residual = 0.562144, Final residual = 2.3441e-07, No Iterations 6
DILUPBiCGStab:  Solving for h, Initial residual = 0.507956, Final residual = 4.85432e-07, No Iterations 5
DICPCG:  Solving for p_rgh, Initial residual = 0.952685, Final residual = 0.00516941, No Iterations 9
diagonal:  Solving for rho, Initial residual = 0, Final residual = 0, No Iterations 0
time step continuity errors : sum local = 0.0479179, global = -1.93308e-15, cumulative = -3.78885e-14
DICPCG:  Solving for p_rgh, Initial residual = 0.677064, Final residual = 9.09281e-09, No Iterations 45
diagonal:  Solving for rho, Initial residual = 0, Final residual = 0, No Iterations 0
time step continuity errors : sum local = 0.000181657, global = -4.54583e-16, cumulative = -3.83431e-14
DILUPBiCGStab:  Solving for epsilon, Initial residual = 0.0725501, Final residual = 1.74209e-07, No Iterations 3
DILUPBiCGStab:  Solving for k, Initial residual = 0.287275, Final residual = 6.77524e-07, No Iterations 4
ExecutionTime = 0.58 s  ClockTime = 3 s

Courant Number mean: 2.45562 max: 25.719
Time = 6

diagonal:  Solving for rho, Initial residual = 0, Final residual = 0, No Iterations 0
PIMPLE: iteration 1
DILUPBiCGStab:  Solving for Ux, Initial residual = 0.459884, Final residual = 7.33189e-07, No Iterations 5
DILUPBiCGStab:  Solving for Uy, Initial residual = 0.614483, Final residual = 8.53038e-07, No Iterations 5
DILUPBiCGStab:  Solving for Uz, Initial residual = 0.459884, Final residual = 7.33189e-07, No Iterations 5
DILUPBiCGStab:  Solving for h, Initial residual = 0.356472, Final residual = 4.18776e-07, No Iterations 5
DICPCG:  Solving for p_rgh, Initial residual = 0.937822, Final residual = 0.00745504, No Iterations 31
diagonal:  Solving for rho, Initial residual = 0, Final residual = 0, No Iterations 0
time step continuity errors : sum local = 0.018892, global = -1.91387e-15, cumulative = -4.0257e-14
DICPCG:  Solving for p_rgh, Initial residual = 0.639362, Final residual = 7.85036e-09, No Iterations 50
diagonal:  Solving for rho, Initial residual = 0, Final residual = 0, No Iterations 0
time step continuity errors : sum local = 0.000822258, global = 1.18456e-15, cumulative = -3.90724e-14
DILUPBiCGStab:  Solving for epsilon, Initial residual = 0.176436, Final residual = 2.5494e-07, No Iterations 3
DILUPBiCGStab:  Solving for k, Initial residual = 0.341405, Final residual = 4.52308e-07, No Iterations 4
ExecutionTime = 0.64 s  ClockTime = 3 s

Courant Number mean: 1.85419 max: 5.12912
Time = 8

diagonal:  Solving for rho, Initial residual = 0, Final residual = 0, No Iterations 0
PIMPLE: iteration 1
DILUPBiCGStab:  Solving for Ux, Initial residual = 0.364754, Final residual = 2.61246e-07, No Iterations 5
DILUPBiCGStab:  Solving for Uy, Initial residual = 0.441274, Final residual = 9.11762e-07, No Iterations 5
DILUPBiCGStab:  Solving for Uz, Initial residual = 0.364754, Final residual = 2.61246e-07, No Iterations 5
DILUPBiCGStab:  Solving for h, Initial residual = 0.178781, Final residual = 2.70151e-07, No Iterations 5
DICPCG:  Solving for p_rgh, Initial residual = 0.886331, Final residual = 0.0065391, No Iterations 29
diagonal:  Solving for rho, Initial residual = 0, Final residual = 0, No Iterations 0
time step continuity errors : sum local = 0.00724821, global = -1.84114e-15, cumulative = -4.09135e-14
DICPCG:  Solving for p_rgh, Initial residual = 0.618444, Final residual = 4.80635e-09, No Iterations 51
diagonal:  Solving for rho, Initial residual = 0, Final residual = 0, No Iterations 0
time step continuity errors : sum local = 0.000172092, global = 7.87231e-16, cumulative = -4.01263e-14
DILUPBiCGStab:  Solving for epsilon, Initial residual = 0.201743, Final residual = 1.6142e-07, No Iterations 3
DILUPBiCGStab:  Solving for k, Initial residual = 0.339526, Final residual = 9.38463e-07, No Iterations 4
ExecutionTime = 0.67 s  ClockTime = 3 s

Courant Number mean: 1.61191 max: 3.87874
Time = 10

diagonal:  Solving for rho, Initial residual = 0, Final residual = 0, No Iterations 0
PIMPLE: iteration 1
DILUPBiCGStab:  Solving for Ux, Initial residual = 0.1714, Final residual = 5.42402e-07, No Iterations 4
DILUPBiCGStab:  Solving for Uy, Initial residual = 0.194787, Final residual = 6.83903e-07, No Iterations 4
DILUPBiCGStab:  Solving for Uz, Initial residual = 0.1714, Final residual = 5.42403e-07, No Iterations 4
DILUPBiCGStab:  Solving for h, Initial residual = 0.103638, Final residual = 2.52249e-07, No Iterations 4
DICPCG:  Solving for p_rgh, Initial residual = 0.649961, Final residual = 0.0056006, No Iterations 29
diagonal:  Solving for rho, Initial residual = 0, Final residual = 0, No Iterations 0
time step continuity errors : sum local = 0.00175222, global = 3.40314e-16, cumulative = -3.9786e-14
DICPCG:  Solving for p_rgh, Initial residual = 0.42451, Final residual = 7.7465e-09, No Iterations 50
diagonal:  Solving for rho, Initial residual = 0, Final residual = 0, No Iterations 0
time step continuity errors : sum local = 4.90881e-05, global = -1.39456e-15, cumulative = -4.11806e-14
DILUPBiCGStab:  Solving for epsilon, Initial residual = 0.215946, Final residual = 1.55524e-07, No Iterations 3
DILUPBiCGStab:  Solving for k, Initial residual = 0.308091, Final residual = 3.85953e-07, No Iterations 4
ExecutionTime = 0.7 s  ClockTime = 3 s

Courant Number mean: 1.42554 max: 3.38377
Time = 12

diagonal:  Solving for rho, Initial residual = 0, Final residual = 0, No Iterations 0
PIMPLE: iteration 1
DILUPBiCGStab:  Solving for Ux, Initial residual = 0.0817993, Final residual = 2.37416e-08, No Iterations 5
DILUPBiCGStab:  Solving for Uy, Initial residual = 0.0923326, Final residual = 2.99608e-07, No Iterations 4
DILUPBiCGStab:  Solving for Uz, Initial residual = 0.0817993, Final residual = 2.37416e-08, No Iterations 5
DILUPBiCGStab:  Solving for h, Initial residual = 0.0643695, Final residual = 4.85263e-07, No Iterations 4
DICPCG:  Solving for p_rgh, Initial residual = 0.417289, Final residual = 0.00246413, No Iterations 28
diagonal:  Solving for rho, Initial residual = 0, Final residual = 0, No Iterations 0
time step continuity errors : sum local = 0.00037638, global = -1.03996e-15, cumulative = -4.22205e-14
DICPCG:  Solving for p_rgh, Initial residual = 0.227975, Final residual = 5.44717e-09, No Iterations 47
diagonal:  Solving for rho, Initial residual = 0, Final residual = 0, No Iterations 0
time step continuity errors : sum local = 5.17015e-06, global = -2.45646e-15, cumulative = -4.4677e-14
DILUPBiCGStab:  Solving for epsilon, Initial residual = 0.214676, Final residual = 1.26824e-07, No Iterations 3
DILUPBiCGStab:  Solving for k, Initial residual = 0.262028, Final residual = 2.57417e-07, No Iterations 4
ExecutionTime = 0.73 s  ClockTime = 3 s

Courant Number mean: 1.29912 max: 3.01846
Time = 14

diagonal:  Solving for rho, Initial residual = 0, Final residual = 0, No Iterations 0
PIMPLE: iteration 1
DILUPBiCGStab:  Solving for Ux, Initial residual = 0.0579139, Final residual = 4.43654e-07, No Iterations 4
DILUPBiCGStab:  Solving for Uy, Initial residual = 0.0658249, Final residual = 4.73741e-07, No Iterations 4
DILUPBiCGStab:  Solving for Uz, Initial residual = 0.0579139, Final residual = 4.43655e-07, No Iterations 4
DILUPBiCGStab:  Solving for h, Initial residual = 0.0491938, Final residual = 5.4196e-07, No Iterations 4
DICPCG:  Solving for p_rgh, Initial residual = 0.256423, Final residual = 0.00239592, No Iterations 9
diagonal:  Solving for rho, Initial residual = 0, Final residual = 0, No Iterations 0
time step continuity errors : sum local = 0.000282999, global = -3.33175e-16, cumulative = -4.50102e-14
DICPCG:  Solving for p_rgh, Initial residual = 0.14593, Final residual = 8.63415e-09, No Iterations 47
diagonal:  Solving for rho, Initial residual = 0, Final residual = 0, No Iterations 0
time step continuity errors : sum local = 1.29474e-07, global = -7.23988e-16, cumulative = -4.57341e-14
DILUPBiCGStab:  Solving for epsilon, Initial residual = 0.203518, Final residual = 9.10734e-08, No Iterations 3
DILUPBiCGStab:  Solving for k, Initial residual = 0.22872, Final residual = 9.68215e-07, No Iterations 3
ExecutionTime = 0.76 s  ClockTime = 3 s

Courant Number mean: 1.19651 max: 2.72565
Time = 16

diagonal:  Solving for rho, Initial residual = 0, Final residual = 0, No Iterations 0
PIMPLE: iteration 1
DILUPBiCGStab:  Solving for Ux, Initial residual = 0.0487054, Final residual = 9.0459e-07, No Iterations 3
DILUPBiCGStab:  Solving for Uy, Initial residual = 0.0549387, Final residual = 2.51818e-07, No Iterations 4
DILUPBiCGStab:  Solving for Uz, Initial residual = 0.0487054, Final residual = 9.0459e-07, No Iterations 3
DILUPBiCGStab:  Solving for h, Initial residual = 0.0396598, Final residual = 4.02921e-07, No Iterations 4
DICPCG:  Solving for p_rgh, Initial residual = 0.207609, Final residual = 0.00203801, No Iterations 9
diagonal:  Solving for rho, Initial residual = 0, Final residual = 0, No Iterations 0
time step continuity errors : sum local = 0.000233016, global = 3.31841e-15, cumulative = -4.24157e-14
DICPCG:  Solving for p_rgh, Initial residual = 0.11878, Final residual = 4.75623e-09, No Iterations 48
diagonal:  Solving for rho, Initial residual = 0, Final residual = 0, No Iterations 0
time step continuity errors : sum local = 1.45529e-07, global = 6.07228e-16, cumulative = -4.18085e-14
DILUPBiCGStab:  Solving for epsilon, Initial residual = 0.186471, Final residual = 7.7214e-07, No Iterations 3
DILUPBiCGStab:  Solving for k, Initial residual = 0.205491, Final residual = 5.35967e-07, No Iterations 3
ExecutionTime = 0.78 s  ClockTime = 3 s

Courant Number mean: 1.10989 max: 2.45899
Time = 18

diagonal:  Solving for rho, Initial residual = 0, Final residual = 0, No Iterations 0
PIMPLE: iteration 1
DILUPBiCGStab:  Solving for Ux, Initial residual = 0.0433969, Final residual = 4.62038e-07, No Iterations 3
DILUPBiCGStab:  Solving for Uy, Initial residual = 0.047351, Final residual = 7.69051e-07, No Iterations 3
DILUPBiCGStab:  Solving for Uz, Initial residual = 0.0433969, Final residual = 4.62038e-07, No Iterations 3
DILUPBiCGStab:  Solving for h, Initial residual = 0.0354138, Final residual = 3.45575e-07, No Iterations 4
DICPCG:  Solving for p_rgh, Initial residual = 0.177966, Final residual = 0.00174727, No Iterations 9
diagonal:  Solving for rho, Initial residual = 0, Final residual = 0, No Iterations 0
time step continuity errors : sum local = 0.000155859, global = 3.99743e-15, cumulative = -3.78111e-14
DICPCG:  Solving for p_rgh, Initial residual = 0.100543, Final residual = 6.74742e-09, No Iterations 47
diagonal:  Solving for rho, Initial residual = 0, Final residual = 0, No Iterations 0
time step continuity errors : sum local = 1.54131e-08, global = 1.88651e-15, cumulative = -3.59246e-14
DILUPBiCGStab:  Solving for epsilon, Initial residual = 0.168495, Final residual = 5.44383e-07, No Iterations 3
DILUPBiCGStab:  Solving for k, Initial residual = 0.188078, Final residual = 2.73514e-07, No Iterations 3
ExecutionTime = 0.8 s  ClockTime = 3 s

Courant Number mean: 1.03493 max: 2.2225
Time = 20

diagonal:  Solving for rho, Initial residual = 0, Final residual = 0, No Iterations 0
PIMPLE: iteration 1
DILUPBiCGStab:  Solving for Ux, Initial residual = 0.0395024, Final residual = 2.56838e-07, No Iterations 3
DILUPBiCGStab:  Solving for Uy, Initial residual = 0.0420395, Final residual = 5.98239e-07, No Iterations 3
DILUPBiCGStab:  Solving for Uz, Initial residual = 0.0395024, Final residual = 2.56838e-07, No Iterations 3
DILUPBiCGStab:  Solving for h, Initial residual = 0.031883, Final residual = 4.71175e-07, No Iterations 3
DICPCG:  Solving for p_rgh, Initial residual = 0.155539, Final residual = 0.00141486, No Iterations 10
diagonal:  Solving for rho, Initial residual = 0, Final residual = 0, No Iterations 0
time step continuity errors : sum local = 0.000129275, global = -1.59765e-15, cumulative = -3.75222e-14
DICPCG:  Solving for p_rgh, Initial residual = 0.0872956, Final residual = 8.65452e-09, No Iterations 46
diagonal:  Solving for rho, Initial residual = 0, Final residual = 0, No Iterations 0
time step continuity errors : sum local = 8.46453e-08, global = -1.12563e-15, cumulative = -3.86478e-14
DILUPBiCGStab:  Solving for epsilon, Initial residual = 0.152229, Final residual = 3.70428e-07, No Iterations 3
DILUPBiCGStab:  Solving for k, Initial residual = 0.174418, Final residual = 1.5816e-07, No Iterations 3
ExecutionTime = 0.83 s  ClockTime = 3 s

Courant Number mean: 0.968818 max: 2.01842
Time = 22

diagonal:  Solving for rho, Initial residual = 0, Final residual = 0, No Iterations 0
PIMPLE: iteration 1
DILUPBiCGStab:  Solving for Ux, Initial residual = 0.0363603, Final residual = 1.44911e-07, No Iterations 3
DILUPBiCGStab:  Solving for Uy, Initial residual = 0.0381662, Final residual = 2.26796e-07, No Iterations 3
DILUPBiCGStab:  Solving for Uz, Initial residual = 0.0363603, Final residual = 1.44911e-07, No Iterations 3
DILUPBiCGStab:  Solving for h, Initial residual = 0.0293728, Final residual = 2.22479e-07, No Iterations 3
DICPCG:  Solving for p_rgh, Initial residual = 0.137859, Final residual = 0.00116134, No Iterations 10
diagonal:  Solving for rho, Initial residual = 0, Final residual = 0, No Iterations 0
time step continuity errors : sum local = 8.7221e-05, global = 1.31617e-15, cumulative = -3.73317e-14
DICPCG:  Solving for p_rgh, Initial residual = 0.0760262, Final residual = 7.34117e-09, No Iterations 46
diagonal:  Solving for rho, Initial residual = 0, Final residual = 0, No Iterations 0
time step continuity errors : sum local = 7.14485e-09, global = 1.64604e-15, cumulative = -3.56856e-14
DILUPBiCGStab:  Solving for epsilon, Initial residual = 0.138996, Final residual = 2.52917e-07, No Iterations 3
DILUPBiCGStab:  Solving for k, Initial residual = 0.163296, Final residual = 1.02881e-07, No Iterations 3
ExecutionTime = 0.86 s  ClockTime = 3 s

Courant Number mean: 0.909976 max: 1.84368
Time = 24

diagonal:  Solving for rho, Initial residual = 0, Final residual = 0, No Iterations 0
PIMPLE: iteration 1
DILUPBiCGStab:  Solving for Ux, Initial residual = 0.0338551, Final residual = 9.6922e-07, No Iterations 3
DILUPBiCGStab:  Solving for Uy, Initial residual = 0.0351345, Final residual = 1.29831e-07, No Iterations 3
DILUPBiCGStab:  Solving for Uz, Initial residual = 0.0338551, Final residual = 9.6922e-07, No Iterations 3
DILUPBiCGStab:  Solving for h, Initial residual = 0.0271583, Final residual = 9.10396e-07, No Iterations 3
DICPCG:  Solving for p_rgh, Initial residual = 0.124358, Final residual = 0.00108643, No Iterations 13
diagonal:  Solving for rho, Initial residual = 0, Final residual = 0, No Iterations 0
time step continuity errors : sum local = 8.6759e-05, global = 3.60341e-16, cumulative = -3.53253e-14
DICPCG:  Solving for p_rgh, Initial residual = 0.0672363, Final residual = 7.38892e-09, No Iterations 46
diagonal:  Solving for rho, Initial residual = 0, Final residual = 0, No Iterations 0
time step continuity errors : sum local = 4.40841e-08, global = 4.70968e-17, cumulative = -3.52782e-14
DILUPBiCGStab:  Solving for epsilon, Initial residual = 0.128362, Final residual = 1.76331e-07, No Iterations 3
DILUPBiCGStab:  Solving for k, Initial residual = 0.153975, Final residual = 6.95479e-07, No Iterations 3
ExecutionTime = 0.9 s  ClockTime = 3 s

Courant Number mean: 0.857322 max: 1.69682
Time = 26

diagonal:  Solving for rho, Initial residual = 0, Final residual = 0, No Iterations 0
PIMPLE: iteration 1
DILUPBiCGStab:  Solving for Ux, Initial residual = 0.0317026, Final residual = 6.6062e-07, No Iterations 3
DILUPBiCGStab:  Solving for Uy, Initial residual = 0.0327163, Final residual = 9.78594e-07, No Iterations 3
DILUPBiCGStab:  Solving for Uz, Initial residual = 0.0317026, Final residual = 6.60619e-07, No Iterations 3
DILUPBiCGStab:  Solving for h, Initial residual = 0.0259442, Final residual = 4.74604e-07, No Iterations 3
DICPCG:  Solving for p_rgh, Initial residual = 0.112116, Final residual = 0.00085454, No Iterations 9
diagonal:  Solving for rho, Initial residual = 0, Final residual = 0, No Iterations 0
time step continuity errors : sum local = 5.79916e-05, global = -2.36586e-16, cumulative = -3.55148e-14
DICPCG:  Solving for p_rgh, Initial residual = 0.0593497, Final residual = 5.46356e-09, No Iterations 46
diagonal:  Solving for rho, Initial residual = 0, Final residual = 0, No Iterations 0
time step continuity errors : sum local = 1.28197e-08, global = -2.32403e-15, cumulative = -3.78388e-14
DILUPBiCGStab:  Solving for epsilon, Initial residual = 0.119677, Final residual = 1.25713e-07, No Iterations 3
DILUPBiCGStab:  Solving for k, Initial residual = 0.145919, Final residual = 4.9191e-07, No Iterations 3
ExecutionTime = 0.93 s  ClockTime = 3 s

Courant Number mean: 0.810055 max: 1.5711
Time = 28

diagonal:  Solving for rho, Initial residual = 0, Final residual = 0, No Iterations 0
PIMPLE: iteration 1
DILUPBiCGStab:  Solving for Ux, Initial residual = 0.0300055, Final residual = 4.75482e-07, No Iterations 3
DILUPBiCGStab:  Solving for Uy, Initial residual = 0.030645, Final residual = 6.70818e-07, No Iterations 3
DILUPBiCGStab:  Solving for Uz, Initial residual = 0.0300055, Final residual = 4.75482e-07, No Iterations 3
DILUPBiCGStab:  Solving for h, Initial residual = 0.0249458, Final residual = 3.5742e-07, No Iterations 3
DICPCG:  Solving for p_rgh, Initial residual = 0.102918, Final residual = 0.000804176, No Iterations 9
diagonal:  Solving for rho, Initial residual = 0, Final residual = 0, No Iterations 0
time step continuity errors : sum local = 5.32415e-05, global = -1.05577e-15, cumulative = -3.88946e-14
DICPCG:  Solving for p_rgh, Initial residual = 0.0532581, Final residual = 8.64011e-09, No Iterations 44
diagonal:  Solving for rho, Initial residual = 0, Final residual = 0, No Iterations 0
time step continuity errors : sum local = 2.27814e-08, global = 1.20377e-15, cumulative = -3.76908e-14
DILUPBiCGStab:  Solving for epsilon, Initial residual = 0.112439, Final residual = 9.1323e-08, No Iterations 3
DILUPBiCGStab:  Solving for k, Initial residual = 0.138843, Final residual = 3.5833e-07, No Iterations 3
ExecutionTime = 0.96 s  ClockTime = 3 s

Courant Number mean: 0.767397 max: 1.46213
Time = 30

diagonal:  Solving for rho, Initial residual = 0, Final residual = 0, No Iterations 0
PIMPLE: iteration 1
DILUPBiCGStab:  Solving for Ux, Initial residual = 0.0285405, Final residual = 3.46474e-07, No Iterations 3
DILUPBiCGStab:  Solving for Uy, Initial residual = 0.0289429, Final residual = 4.80411e-07, No Iterations 3
DILUPBiCGStab:  Solving for Uz, Initial residual = 0.0285405, Final residual = 3.46474e-07, No Iterations 3
DILUPBiCGStab:  Solving for h, Initial residual = 0.0258375, Final residual = 3.36294e-07, No Iterations 3
DICPCG:  Solving for p_rgh, Initial residual = 0.0964832, Final residual = 0.00067154, No Iterations 9
diagonal:  Solving for rho, Initial residual = 0, Final residual = 0, No Iterations 0
time step continuity errors : sum local = 4.11434e-05, global = 2.85887e-15, cumulative = -3.48319e-14
DICPCG:  Solving for p_rgh, Initial residual = 0.0480556, Final residual = 9.38936e-09, No Iterations 45
diagonal:  Solving for rho, Initial residual = 0, Final residual = 0, No Iterations 0
time step continuity errors : sum local = 1.15813e-08, global = -9.55831e-17, cumulative = -3.49275e-14
DILUPBiCGStab:  Solving for epsilon, Initial residual = 0.106377, Final residual = 9.87317e-07, No Iterations 2
DILUPBiCGStab:  Solving for k, Initial residual = 0.132519, Final residual = 2.69423e-07, No Iterations 3
ExecutionTime = 0.99 s  ClockTime = 3 s

Courant Number mean: 0.728684 max: 1.36734
Time = 32

diagonal:  Solving for rho, Initial residual = 0, Final residual = 0, No Iterations 0
PIMPLE: iteration 1
DILUPBiCGStab:  Solving for Ux, Initial residual = 0.0272887, Final residual = 2.57861e-07, No Iterations 3
DILUPBiCGStab:  Solving for Uy, Initial residual = 0.0274987, Final residual = 3.61791e-07, No Iterations 3
DILUPBiCGStab:  Solving for Uz, Initial residual = 0.0272887, Final residual = 2.57861e-07, No Iterations 3
DILUPBiCGStab:  Solving for h, Initial residual = 0.0265592, Final residual = 4.81321e-07, No Iterations 3
DICPCG:  Solving for p_rgh, Initial residual = 0.0905983, Final residual = 0.000714505, No Iterations 9
diagonal:  Solving for rho, Initial residual = 0, Final residual = 0, No Iterations 0
time step continuity errors : sum local = 4.1336e-05, global = -7.31175e-16, cumulative = -3.56587e-14
DICPCG:  Solving for p_rgh, Initial residual = 0.0435089, Final residual = 8.22153e-09, No Iterations 45
diagonal:  Solving for rho, Initial residual = 0, Final residual = 0, No Iterations 0
time step continuity errors : sum local = 1.6611e-08, global = -2.96494e-15, cumulative = -3.86236e-14
DILUPBiCGStab:  Solving for epsilon, Initial residual = 0.101213, Final residual = 7.65584e-07, No Iterations 2
DILUPBiCGStab:  Solving for k, Initial residual = 0.126816, Final residual = 2.07406e-07, No Iterations 3
ExecutionTime = 1.01 s  ClockTime = 3 s

Courant Number mean: 0.693377 max: 1.28434
Time = 34

diagonal:  Solving for rho, Initial residual = 0, Final residual = 0, No Iterations 0
PIMPLE: iteration 1
DILUPBiCGStab:  Solving for Ux, Initial residual = 0.0261607, Final residual = 1.92564e-07, No Iterations 3
DILUPBiCGStab:  Solving for Uy, Initial residual = 0.0262305, Final residual = 2.82269e-07, No Iterations 3
DILUPBiCGStab:  Solving for Uz, Initial residual = 0.0261607, Final residual = 1.92564e-07, No Iterations 3
DILUPBiCGStab:  Solving for h, Initial residual = 0.026983, Final residual = 2.06138e-07, No Iterations 3
DICPCG:  Solving for p_rgh, Initial residual = 0.0850068, Final residual = 0.000598288, No Iterations 9
diagonal:  Solving for rho, Initial residual = 0, Final residual = 0, No Iterations 0
time step continuity errors : sum local = 3.26075e-05, global = 7.14933e-16, cumulative = -3.79087e-14
DICPCG:  Solving for p_rgh, Initial residual = 0.0396202, Final residual = 6.19825e-09, No Iterations 45
diagonal:  Solving for rho, Initial residual = 0, Final residual = 0, No Iterations 0
time step continuity errors : sum local = 9.80827e-09, global = 2.4865e-15, cumulative = -3.54222e-14
DILUPBiCGStab:  Solving for epsilon, Initial residual = 0.0967549, Final residual = 5.99891e-07, No Iterations 2
DILUPBiCGStab:  Solving for k, Initial residual = 0.121629, Final residual = 1.61914e-07, No Iterations 3
ExecutionTime = 1.04 s  ClockTime = 3 s

Courant Number mean: 0.661116 max: 1.21534
Time = 36

diagonal:  Solving for rho, Initial residual = 0, Final residual = 0, No Iterations 0
PIMPLE: iteration 1
DILUPBiCGStab:  Solving for Ux, Initial residual = 0.0251307, Final residual = 1.45673e-07, No Iterations 3
DILUPBiCGStab:  Solving for Uy, Initial residual = 0.0250579, Final residual = 2.26632e-07, No Iterations 3
DILUPBiCGStab:  Solving for Uz, Initial residual = 0.0251307, Final residual = 1.45673e-07, No Iterations 3
DILUPBiCGStab:  Solving for h, Initial residual = 0.0270569, Final residual = 1.84451e-07, No Iterations 3
DICPCG:  Solving for p_rgh, Initial residual = 0.0796796, Final residual = 0.000638141, No Iterations 9
diagonal:  Solving for rho, Initial residual = 0, Final residual = 0, No Iterations 0
time step continuity errors : sum local = 3.31897e-05, global = -1.78992e-15, cumulative = -3.72121e-14
DICPCG:  Solving for p_rgh, Initial residual = 0.0361792, Final residual = 4.89331e-09, No Iterations 45
diagonal:  Solving for rho, Initial residual = 0, Final residual = 0, No Iterations 0
time step continuity errors : sum local = 1.2947e-08, global = 2.48674e-15, cumulative = -3.47254e-14
DILUPBiCGStab:  Solving for epsilon, Initial residual = 0.0928538, Final residual = 4.74797e-07, No Iterations 2
DILUPBiCGStab:  Solving for k, Initial residual = 0.116863, Final residual = 1.28358e-07, No Iterations 3
ExecutionTime = 1.08 s  ClockTime = 3 s

Courant Number mean: 0.631604 max: 1.16169
Time = 38

diagonal:  Solving for rho, Initial residual = 0, Final residual = 0, No Iterations 0
PIMPLE: iteration 1
DILUPBiCGStab:  Solving for Ux, Initial residual = 0.0241915, Final residual = 8.2348e-07, No Iterations 2
DILUPBiCGStab:  Solving for Uy, Initial residual = 0.0239976, Final residual = 8.99944e-07, No Iterations 2
DILUPBiCGStab:  Solving for Uz, Initial residual = 0.0241915, Final residual = 8.2348e-07, No Iterations 2
DILUPBiCGStab:  Solving for h, Initial residual = 0.0268922, Final residual = 1.56264e-07, No Iterations 3
DICPCG:  Solving for p_rgh, Initial residual = 0.0749306, Final residual = 0.000553479, No Iterations 9
diagonal:  Solving for rho, Initial residual = 0, Final residual = 0, No Iterations 0
time step continuity errors : sum local = 2.76458e-05, global = -2.30027e-15, cumulative = -3.70257e-14
DICPCG:  Solving for p_rgh, Initial residual = 0.0330502, Final residual = 5.07922e-09, No Iterations 45
diagonal:  Solving for rho, Initial residual = 0, Final residual = 0, No Iterations 0
time step continuity errors : sum local = 9.29748e-09, global = -2.06613e-15, cumulative = -3.90918e-14
DILUPBiCGStab:  Solving for epsilon, Initial residual = 0.0893383, Final residual = 3.79734e-07, No Iterations 2
DILUPBiCGStab:  Solving for k, Initial residual = 0.112448, Final residual = 1.03615e-07, No Iterations 3
ExecutionTime = 1.11 s  ClockTime = 3 s

Courant Number mean: 0.604535 max: 1.11096
Time = 40

diagonal:  Solving for rho, Initial residual = 0, Final residual = 0, No Iterations 0
PIMPLE: iteration 1
DILUPBiCGStab:  Solving for Ux, Initial residual = 0.0233549, Final residual = 6.46209e-07, No Iterations 2
DILUPBiCGStab:  Solving for Uy, Initial residual = 0.023021, Final residual = 7.09134e-07, No Iterations 2
DILUPBiCGStab:  Solving for Uz, Initial residual = 0.0233549, Final residual = 6.46209e-07, No Iterations 2
DILUPBiCGStab:  Solving for h, Initial residual = 0.0266501, Final residual = 1.2705e-07, No Iterations 3
DICPCG:  Solving for p_rgh, Initial residual = 0.0711271, Final residual = 0.000591921, No Iterations 9
diagonal:  Solving for rho, Initial residual = 0, Final residual = 0, No Iterations 0
time step continuity errors : sum local = 2.83754e-05, global = -2.29064e-15, cumulative = -4.13824e-14
DICPCG:  Solving for p_rgh, Initial residual = 0.0303826, Final residual = 5.50519e-09, No Iterations 45
diagonal:  Solving for rho, Initial residual = 0, Final residual = 0, No Iterations 0
time step continuity errors : sum local = 1.13685e-08, global = -1.97481e-15, cumulative = -4.33572e-14
DILUPBiCGStab:  Solving for epsilon, Initial residual = 0.0861272, Final residual = 3.05084e-07, No Iterations 2
DILUPBiCGStab:  Solving for k, Initial residual = 0.108345, Final residual = 9.61974e-07, No Iterations 2
ExecutionTime = 1.12 s  ClockTime = 3 s

Courant Number mean: 0.579534 max: 1.06312
Time = 42

diagonal:  Solving for rho, Initial residual = 0, Final residual = 0, No Iterations 0
PIMPLE: iteration 1
DILUPBiCGStab:  Solving for Ux, Initial residual = 0.0227249, Final residual = 5.13036e-07, No Iterations 2
DILUPBiCGStab:  Solving for Uy, Initial residual = 0.0221232, Final residual = 5.80508e-07, No Iterations 2
DILUPBiCGStab:  Solving for Uz, Initial residual = 0.022725, Final residual = 5.13036e-07, No Iterations 2
DILUPBiCGStab:  Solving for h, Initial residual = 0.026206, Final residual = 8.88563e-08, No Iterations 3
DICPCG:  Solving for p_rgh, Initial residual = 0.0671434, Final residual = 0.000537665, No Iterations 9
diagonal:  Solving for rho, Initial residual = 0, Final residual = 0, No Iterations 0
time step continuity errors : sum local = 2.47397e-05, global = 1.37391e-15, cumulative = -4.19833e-14
DICPCG:  Solving for p_rgh, Initial residual = 0.0281988, Final residual = 5.2568e-09, No Iterations 45
diagonal:  Solving for rho, Initial residual = 0, Final residual = 0, No Iterations 0
time step continuity errors : sum local = 8.63616e-09, global = 3.36246e-15, cumulative = -3.86209e-14
DILUPBiCGStab:  Solving for epsilon, Initial residual = 0.0831503, Final residual = 2.45771e-07, No Iterations 2
DILUPBiCGStab:  Solving for k, Initial residual = 0.104543, Final residual = 7.70581e-07, No Iterations 2
ExecutionTime = 1.15 s  ClockTime = 3 s

Courant Number mean: 0.556372 max: 1.02234
Time = 44

diagonal:  Solving for rho, Initial residual = 0, Final residual = 0, No Iterations 0
PIMPLE: iteration 1
DILUPBiCGStab:  Solving for Ux, Initial residual = 0.0221793, Final residual = 4.09505e-07, No Iterations 2
DILUPBiCGStab:  Solving for Uy, Initial residual = 0.0213433, Final residual = 4.81795e-07, No Iterations 2
DILUPBiCGStab:  Solving for Uz, Initial residual = 0.0221793, Final residual = 4.09505e-07, No Iterations 2
DILUPBiCGStab:  Solving for h, Initial residual = 0.0254095, Final residual = 7.16225e-08, No Iterations 3
DICPCG:  Solving for p_rgh, Initial residual = 0.0641002, Final residual = 0.000549942, No Iterations 9
diagonal:  Solving for rho, Initial residual = 0, Final residual = 0, No Iterations 0
time step continuity errors : sum local = 2.45647e-05, global = -1.77938e-15, cumulative = -4.04002e-14
DICPCG:  Solving for p_rgh, Initial residual = 0.0260021, Final residual = 4.40475e-09, No Iterations 45
diagonal:  Solving for rho, Initial residual = 0, Final residual = 0, No Iterations 0
time step continuity errors : sum local = 9.17215e-09, global = -8.31836e-16, cumulative = -4.12321e-14
DILUPBiCGStab:  Solving for epsilon, Initial residual = 0.0804085, Final residual = 1.99549e-07, No Iterations 2
DILUPBiCGStab:  Solving for k, Initial residual = 0.100945, Final residual = 6.20569e-07, No Iterations 2
ExecutionTime = 1.19 s  ClockTime = 3 s

Courant Number mean: 0.534943 max: 0.98519
Time = 46

diagonal:  Solving for rho, Initial residual = 0, Final residual = 0, No Iterations 0
PIMPLE: iteration 1
DILUPBiCGStab:  Solving for Ux, Initial residual = 0.021696, Final residual = 3.31551e-07, No Iterations 2
DILUPBiCGStab:  Solving for Uy, Initial residual = 0.0206572, Final residual = 3.99614e-07, No Iterations 2
DILUPBiCGStab:  Solving for Uz, Initial residual = 0.021696, Final residual = 3.31551e-07, No Iterations 2
DILUPBiCGStab:  Solving for h, Initial residual = 0.0245497, Final residual = 4.46314e-08, No Iterations 3
DICPCG:  Solving for p_rgh, Initial residual = 0.0614005, Final residual = 0.000528727, No Iterations 9
diagonal:  Solving for rho, Initial residual = 0, Final residual = 0, No Iterations 0
time step continuity errors : sum local = 2.30361e-05, global = 2.42886e-15, cumulative = -3.88032e-14
DICPCG:  Solving for p_rgh, Initial residual = 0.023995, Final residual = 9.10743e-09, No Iterations 44
diagonal:  Solving for rho, Initial residual = 0, Final residual = 0, No Iterations 0
time step continuity errors : sum local = 8.45733e-09, global = 1.19793e-15, cumulative = -3.76053e-14
DILUPBiCGStab:  Solving for epsilon, Initial residual = 0.0778076, Final residual = 1.62295e-07, No Iterations 2
DILUPBiCGStab:  Solving for k, Initial residual = 0.0975791, Final residual = 5.05404e-07, No Iterations 2
ExecutionTime = 1.22 s  ClockTime = 3 s

Courant Number mean: 0.515002 max: 0.946869
Time = 48

diagonal:  Solving for rho, Initial residual = 0, Final residual = 0, No Iterations 0
PIMPLE: iteration 1
DILUPBiCGStab:  Solving for Ux, Initial residual = 0.0213556, Final residual = 2.7202e-07, No Iterations 2
DILUPBiCGStab:  Solving for Uy, Initial residual = 0.0200359, Final residual = 3.31533e-07, No Iterations 2
DILUPBiCGStab:  Solving for Uz, Initial residual = 0.0213556, Final residual = 2.7202e-07, No Iterations 2
DILUPBiCGStab:  Solving for h, Initial residual = 0.0242481, Final residual = 5.31786e-08, No Iterations 3
DICPCG:  Solving for p_rgh, Initial residual = 0.058764, Final residual = 0.000533788, No Iterations 9
diagonal:  Solving for rho, Initial residual = 0, Final residual = 0, No Iterations 0
time step continuity errors : sum local = 2.26621e-05, global = -3.63197e-15, cumulative = -4.12373e-14
DICPCG:  Solving for p_rgh, Initial residual = 0.0224305, Final residual = 9.63138e-09, No Iterations 44
diagonal:  Solving for rho, Initial residual = 0, Final residual = 0, No Iterations 0
time step continuity errors : sum local = 8.42192e-09, global = -3.64576e-15, cumulative = -4.4883e-14
DILUPBiCGStab:  Solving for epsilon, Initial residual = 0.0753497, Final residual = 1.32369e-07, No Iterations 2
DILUPBiCGStab:  Solving for k, Initial residual = 0.0943924, Final residual = 4.14996e-07, No Iterations 2
ExecutionTime = 1.23 s  ClockTime = 3 s

Courant Number mean: 0.496411 max: 0.971452
Time = 50

diagonal:  Solving for rho, Initial residual = 0, Final residual = 0, No Iterations 0
PIMPLE: iteration 1
DILUPBiCGStab:  Solving for Ux, Initial residual = 0.0211254, Final residual = 2.25455e-07, No Iterations 2
DILUPBiCGStab:  Solving for Uy, Initial residual = 0.019487, Final residual = 2.75706e-07, No Iterations 2
DILUPBiCGStab:  Solving for Uz, Initial residual = 0.0211254, Final residual = 2.25455e-07, No Iterations 2
DILUPBiCGStab:  Solving for h, Initial residual = 0.0238346, Final residual = 7.98997e-07, No Iterations 2
DICPCG:  Solving for p_rgh, Initial residual = 0.0570432, Final residual = 0.000527429, No Iterations 9
diagonal:  Solving for rho, Initial residual = 0, Final residual = 0, No Iterations 0
time step continuity errors : sum local = 2.19576e-05, global = 2.49666e-15, cumulative = -4.23864e-14
DICPCG:  Solving for p_rgh, Initial residual = 0.0210051, Final residual = 5.11393e-09, No Iterations 45
diagonal:  Solving for rho, Initial residual = 0, Final residual = 0, No Iterations 0
time step continuity errors : sum local = 7.8271e-09, global = 1.99728e-15, cumulative = -4.03891e-14
DILUPBiCGStab:  Solving for epsilon, Initial residual = 0.0730554, Final residual = 1.0786e-07, No Iterations 2
DILUPBiCGStab:  Solving for k, Initial residual = 0.0913382, Final residual = 3.43142e-07, No Iterations 2
ExecutionTime = 1.26 s  ClockTime = 3 s

Courant Number mean: 0.479052 max: 1.00487
Time = 52

diagonal:  Solving for rho, Initial residual = 0, Final residual = 0, No Iterations 0
PIMPLE: iteration 1
DILUPBiCGStab:  Solving for Ux, Initial residual = 0.0209736, Final residual = 1.88905e-07, No Iterations 2
DILUPBiCGStab:  Solving for Uy, Initial residual = 0.019036, Final residual = 2.3106e-07, No Iterations 2
DILUPBiCGStab:  Solving for Uz, Initial residual = 0.0209736, Final residual = 1.88905e-07, No Iterations 2
DILUPBiCGStab:  Solving for h, Initial residual = 0.0233856, Final residual = 6.90021e-07, No Iterations 2
DICPCG:  Solving for p_rgh, Initial residual = 0.0556175, Final residual = 0.000541171, No Iterations 9
diagonal:  Solving for rho, Initial residual = 0, Final residual = 0, No Iterations 0
time step continuity errors : sum local = 2.21615e-05, global = -2.54055e-15, cumulative = -4.29296e-14
DICPCG:  Solving for p_rgh, Initial residual = 0.0198614, Final residual = 5.57575e-09, No Iterations 45
diagonal:  Solving for rho, Initial residual = 0, Final residual = 0, No Iterations 0
time step continuity errors : sum local = 7.77294e-09, global = -1.31181e-15, cumulative = -4.42414e-14
DILUPBiCGStab:  Solving for epsilon, Initial residual = 0.0708853, Final residual = 8.74223e-08, No Iterations 2
DILUPBiCGStab:  Solving for k, Initial residual = 0.088409, Final residual = 2.85438e-07, No Iterations 2
ExecutionTime = 1.29 s  ClockTime = 3 s

Courant Number mean: 0.462786 max: 1.03217
Time = 54

diagonal:  Solving for rho, Initial residual = 0, Final residual = 0, No Iterations 0
PIMPLE: iteration 1
DILUPBiCGStab:  Solving for Ux, Initial residual = 0.0209379, Final residual = 1.60021e-07, No Iterations 2
DILUPBiCGStab:  Solving for Uy, Initial residual = 0.018635, Final residual = 1.96586e-07, No Iterations 2
DILUPBiCGStab:  Solving for Uz, Initial residual = 0.0209379, Final residual = 1.60021e-07, No Iterations 2
DILUPBiCGStab:  Solving for h, Initial residual = 0.0229319, Final residual = 5.96595e-07, No Iterations 2
DICPCG:  Solving for p_rgh, Initial residual = 0.0532172, Final residual = 0.000329857, No Iterations 10
diagonal:  Solving for rho, Initial residual = 0, Final residual = 0, No Iterations 0
time step continuity errors : sum local = 1.3643e-05, global = -5.07956e-16, cumulative = -4.47494e-14
DICPCG:  Solving for p_rgh, Initial residual = 0.0189208, Final residual = 5.81301e-09, No Iterations 45
diagonal:  Solving for rho, Initial residual = 0, Final residual = 0, No Iterations 0
time step continuity errors : sum local = 7.26629e-09, global = -1.88699e-15, cumulative = -4.66364e-14
DILUPBiCGStab:  Solving for epsilon, Initial residual = 0.0688774, Final residual = 7.13847e-08, No Iterations 2
DILUPBiCGStab:  Solving for k, Initial residual = 0.0856326, Final residual = 2.39206e-07, No Iterations 2
ExecutionTime = 1.32 s  ClockTime = 3 s

Courant Number mean: 0.447525 max: 1.05493
Time = 56

diagonal:  Solving for rho, Initial residual = 0, Final residual = 0, No Iterations 0
PIMPLE: iteration 1
DILUPBiCGStab:  Solving for Ux, Initial residual = 0.0209785, Final residual = 1.36657e-07, No Iterations 2
DILUPBiCGStab:  Solving for Uy, Initial residual = 0.0182877, Final residual = 1.68663e-07, No Iterations 2
DILUPBiCGStab:  Solving for Uz, Initial residual = 0.0209785, Final residual = 1.36657e-07, No Iterations 2
DILUPBiCGStab:  Solving for h, Initial residual = 0.0225243, Final residual = 5.04974e-07, No Iterations 2
DICPCG:  Solving for p_rgh, Initial residual = 0.0533826, Final residual = 0.00035254, No Iterations 10
diagonal:  Solving for rho, Initial residual = 0, Final residual = 0, No Iterations 0
time step continuity errors : sum local = 1.43694e-05, global = -4.07582e-16, cumulative = -4.7044e-14
DICPCG:  Solving for p_rgh, Initial residual = 0.0183304, Final residual = 6.27851e-09, No Iterations 45
diagonal:  Solving for rho, Initial residual = 0, Final residual = 0, No Iterations 0
time step continuity errors : sum local = 7.27099e-09, global = 3.74135e-15, cumulative = -4.33026e-14
DILUPBiCGStab:  Solving for epsilon, Initial residual = 0.0668788, Final residual = 5.9253e-08, No Iterations 2
DILUPBiCGStab:  Solving for k, Initial residual = 0.0829547, Final residual = 2.0308e-07, No Iterations 2
ExecutionTime = 1.34 s  ClockTime = 3 s

Courant Number mean: 0.433217 max: 1.07415
Time = 58

diagonal:  Solving for rho, Initial residual = 0, Final residual = 0, No Iterations 0
PIMPLE: iteration 1
DILUPBiCGStab:  Solving for Ux, Initial residual = 0.0211026, Final residual = 1.17502e-07, No Iterations 2
DILUPBiCGStab:  Solving for Uy, Initial residual = 0.0180827, Final residual = 1.44635e-07, No Iterations 2
DILUPBiCGStab:  Solving for Uz, Initial residual = 0.0211026, Final residual = 1.17502e-07, No Iterations 2
DILUPBiCGStab:  Solving for h, Initial residual = 0.0222525, Final residual = 4.00414e-07, No Iterations 2
DICPCG:  Solving for p_rgh, Initial residual = 0.0537889, Final residual = 0.000373739, No Iterations 10
diagonal:  Solving for rho, Initial residual = 0, Final residual = 0, No Iterations 0
time step continuity errors : sum local = 1.49917e-05, global = 9.35181e-16, cumulative = -4.23674e-14
DICPCG:  Solving for p_rgh, Initial residual = 0.0179824, Final residual = 6.69831e-09, No Iterations 45
diagonal:  Solving for rho, Initial residual = 0, Final residual = 0, No Iterations 0
time step continuity errors : sum local = 7.4431e-09, global = 7.1752e-16, cumulative = -4.16499e-14
DILUPBiCGStab:  Solving for epsilon, Initial residual = 0.0648943, Final residual = 4.90053e-08, No Iterations 2
DILUPBiCGStab:  Solving for k, Initial residual = 0.0803132, Final residual = 1.72156e-07, No Iterations 2
ExecutionTime = 1.37 s  ClockTime = 3 s

Courant Number mean: 0.419594 max: 1.0852
Time = 60

diagonal:  Solving for rho, Initial residual = 0, Final residual = 0, No Iterations 0
PIMPLE: iteration 1
DILUPBiCGStab:  Solving for Ux, Initial residual = 0.0212899, Final residual = 1.02151e-07, No Iterations 2
DILUPBiCGStab:  Solving for Uy, Initial residual = 0.0179491, Final residual = 1.23776e-07, No Iterations 2
DILUPBiCGStab:  Solving for Uz, Initial residual = 0.0212899, Final residual = 1.02151e-07, No Iterations 2
DILUPBiCGStab:  Solving for h, Initial residual = 0.0220733, Final residual = 3.18855e-07, No Iterations 2
DICPCG:  Solving for p_rgh, Initial residual = 0.0536004, Final residual = 0.000365214, No Iterations 10
diagonal:  Solving for rho, Initial residual = 0, Final residual = 0, No Iterations 0
time step continuity errors : sum local = 1.44533e-05, global = -2.47658e-15, cumulative = -4.41265e-14
DICPCG:  Solving for p_rgh, Initial residual = 0.0175834, Final residual = 6.73505e-09, No Iterations 45
diagonal:  Solving for rho, Initial residual = 0, Final residual = 0, No Iterations 0
time step continuity errors : sum local = 6.90137e-09, global = -3.10226e-15, cumulative = -4.72288e-14
DILUPBiCGStab:  Solving for epsilon, Initial residual = 0.0630429, Final residual = 4.05467e-08, No Iterations 2
DILUPBiCGStab:  Solving for k, Initial residual = 0.0777887, Final residual = 1.46594e-07, No Iterations 2
ExecutionTime = 1.4 s  ClockTime = 3 s

Courant Number mean: 0.406598 max: 1.09125
Time = 62

diagonal:  Solving for rho, Initial residual = 0, Final residual = 0, No Iterations 0
PIMPLE: iteration 1
DILUPBiCGStab:  Solving for Ux, Initial residual = 0.0215595, Final residual = 9.04338e-08, No Iterations 2
DILUPBiCGStab:  Solving for Uy, Initial residual = 0.017917, Final residual = 1.0762e-07, No Iterations 2
DILUPBiCGStab:  Solving for Uz, Initial residual = 0.0215595, Final residual = 9.04337e-08, No Iterations 2
DILUPBiCGStab:  Solving for h, Initial residual = 0.0217624, Final residual = 2.88944e-07, No Iterations 2
DICPCG:  Solving for p_rgh, Initial residual = 0.0534366, Final residual = 0.000392075, No Iterations 10
diagonal:  Solving for rho, Initial residual = 0, Final residual = 0, No Iterations 0
time step continuity errors : sum local = 1.52297e-05, global = 8.76586e-16, cumulative = -4.63522e-14
DICPCG:  Solving for p_rgh, Initial residual = 0.0171775, Final residual = 6.86874e-09, No Iterations 45
diagonal:  Solving for rho, Initial residual = 0, Final residual = 0, No Iterations 0
time step continuity errors : sum local = 6.36966e-09, global = -1.55233e-17, cumulative = -4.63677e-14
DILUPBiCGStab:  Solving for epsilon, Initial residual = 0.0612188, Final residual = 3.45926e-08, No Iterations 2
DILUPBiCGStab:  Solving for k, Initial residual = 0.0753499, Final residual = 1.28146e-07, No Iterations 2
ExecutionTime = 1.43 s  ClockTime = 3 s

Courant Number mean: 0.394429 max: 1.09287
Time = 64

diagonal:  Solving for rho, Initial residual = 0, Final residual = 0, No Iterations 0
PIMPLE: iteration 1
DILUPBiCGStab:  Solving for Ux, Initial residual = 0.0218954, Final residual = 8.2116e-08, No Iterations 2
DILUPBiCGStab:  Solving for Uy, Initial residual = 0.01796, Final residual = 9.286e-08, No Iterations 2
DILUPBiCGStab:  Solving for Uz, Initial residual = 0.0218954, Final residual = 8.2116e-08, No Iterations 2
DILUPBiCGStab:  Solving for h, Initial residual = 0.0214615, Final residual = 3.10682e-07, No Iterations 2
DICPCG:  Solving for p_rgh, Initial residual = 0.054839, Final residual = 0.000433739, No Iterations 10
diagonal:  Solving for rho, Initial residual = 0, Final residual = 0, No Iterations 0
time step continuity errors : sum local = 1.6499e-05, global = 2.09052e-15, cumulative = -4.42772e-14
DICPCG:  Solving for p_rgh, Initial residual = 0.0171601, Final residual = 7.06354e-09, No Iterations 45
diagonal:  Solving for rho, Initial residual = 0, Final residual = 0, No Iterations 0
time step continuity errors : sum local = 6.01142e-09, global = 3.30981e-15, cumulative = -4.09674e-14
DILUPBiCGStab:  Solving for epsilon, Initial residual = 0.0595739, Final residual = 3.10659e-08, No Iterations 2
DILUPBiCGStab:  Solving for k, Initial residual = 0.0730524, Final residual = 1.12571e-07, No Iterations 2
ExecutionTime = 1.46 s  ClockTime = 3 s

Courant Number mean: 0.382868 max: 1.09134
Time = 66

diagonal:  Solving for rho, Initial residual = 0, Final residual = 0, No Iterations 0
PIMPLE: iteration 1
DILUPBiCGStab:  Solving for Ux, Initial residual = 0.0223521, Final residual = 7.48348e-08, No Iterations 2
DILUPBiCGStab:  Solving for Uy, Initial residual = 0.0180691, Final residual = 7.86398e-08, No Iterations 2
DILUPBiCGStab:  Solving for Uz, Initial residual = 0.0223521, Final residual = 7.48348e-08, No Iterations 2
DILUPBiCGStab:  Solving for h, Initial residual = 0.0212709, Final residual = 3.35924e-07, No Iterations 2
DICPCG:  Solving for p_rgh, Initial residual = 0.0555345, Final residual = 0.000482797, No Iterations 10
diagonal:  Solving for rho, Initial residual = 0, Final residual = 0, No Iterations 0
time step continuity errors : sum local = 1.81005e-05, global = -1.46355e-15, cumulative = -4.24309e-14
DICPCG:  Solving for p_rgh, Initial residual = 0.0172915, Final residual = 7.10238e-09, No Iterations 45
diagonal:  Solving for rho, Initial residual = 0, Final residual = 0, No Iterations 0
time step continuity errors : sum local = 6.06575e-09, global = -5.10256e-15, cumulative = -4.75335e-14
DILUPBiCGStab:  Solving for epsilon, Initial residual = 0.0578927, Final residual = 9.39844e-07, No Iterations 2
DILUPBiCGStab:  Solving for k, Initial residual = 0.0707529, Final residual = 9.91844e-08, No Iterations 2
ExecutionTime = 1.48 s  ClockTime = 3 s

Courant Number mean: 0.371771 max: 1.08748
Time = 68

diagonal:  Solving for rho, Initial residual = 0, Final residual = 0, No Iterations 0
PIMPLE: iteration 1
DILUPBiCGStab:  Solving for Ux, Initial residual = 0.0228772, Final residual = 6.82084e-08, No Iterations 2
DILUPBiCGStab:  Solving for Uy, Initial residual = 0.0182455, Final residual = 6.99678e-08, No Iterations 2
DILUPBiCGStab:  Solving for Uz, Initial residual = 0.0228773, Final residual = 6.82084e-08, No Iterations 2
DILUPBiCGStab:  Solving for h, Initial residual = 0.0210791, Final residual = 3.2037e-07, No Iterations 2
DICPCG:  Solving for p_rgh, Initial residual = 0.0563934, Final residual = 0.000510891, No Iterations 10
diagonal:  Solving for rho, Initial residual = 0, Final residual = 0, No Iterations 0
time step continuity errors : sum local = 1.89039e-05, global = 3.17777e-15, cumulative = -4.43557e-14
DICPCG:  Solving for p_rgh, Initial residual = 0.0173214, Final residual = 7.16809e-09, No Iterations 45
diagonal:  Solving for rho, Initial residual = 0, Final residual = 0, No Iterations 0
time step continuity errors : sum local = 5.8248e-09, global = 5.31629e-15, cumulative = -3.90394e-14
DILUPBiCGStab:  Solving for epsilon, Initial residual = 0.0563065, Final residual = 8.56529e-07, No Iterations 2
DILUPBiCGStab:  Solving for k, Initial residual = 0.0686023, Final residual = 8.76274e-08, No Iterations 2
ExecutionTime = 1.51 s  ClockTime = 4 s

Courant Number mean: 0.361175 max: 1.08226
Time = 70

diagonal:  Solving for rho, Initial residual = 0, Final residual = 0, No Iterations 0
PIMPLE: iteration 1
DILUPBiCGStab:  Solving for Ux, Initial residual = 0.0235048, Final residual = 6.26255e-08, No Iterations 2
DILUPBiCGStab:  Solving for Uy, Initial residual = 0.018508, Final residual = 6.46938e-08, No Iterations 2
DILUPBiCGStab:  Solving for Uz, Initial residual = 0.0235048, Final residual = 6.26255e-08, No Iterations 2
DILUPBiCGStab:  Solving for h, Initial residual = 0.0209395, Final residual = 2.6821e-07, No Iterations 2
DICPCG:  Solving for p_rgh, Initial residual = 0.0575319, Final residual = 0.000520214, No Iterations 10
diagonal:  Solving for rho, Initial residual = 0, Final residual = 0, No Iterations 0
time step continuity errors : sum local = 1.91778e-05, global = -2.44774e-15, cumulative = -4.14872e-14
DICPCG:  Solving for p_rgh, Initial residual = 0.0173494, Final residual = 7.27357e-09, No Iterations 45
diagonal:  Solving for rho, Initial residual = 0, Final residual = 0, No Iterations 0
time step continuity errors : sum local = 5.63127e-09, global = -2.8214e-15, cumulative = -4.43086e-14
DILUPBiCGStab:  Solving for epsilon, Initial residual = 0.0547371, Final residual = 8.24224e-07, No Iterations 2
DILUPBiCGStab:  Solving for k, Initial residual = 0.0663928, Final residual = 7.68697e-08, No Iterations 2
ExecutionTime = 1.54 s  ClockTime = 4 s

Courant Number mean: 0.351058 max: 1.07631
Time = 72

diagonal:  Solving for rho, Initial residual = 0, Final residual = 0, No Iterations 0
PIMPLE: iteration 1
DILUPBiCGStab:  Solving for Ux, Initial residual = 0.0241392, Final residual = 5.76258e-08, No Iterations 2
DILUPBiCGStab:  Solving for Uy, Initial residual = 0.0189083, Final residual = 5.78727e-08, No Iterations 2
DILUPBiCGStab:  Solving for Uz, Initial residual = 0.0241391, Final residual = 5.76259e-08, No Iterations 2
DILUPBiCGStab:  Solving for h, Initial residual = 0.0207653, Final residual = 2.17132e-07, No Iterations 2
DICPCG:  Solving for p_rgh, Initial residual = 0.0584142, Final residual = 0.000551, No Iterations 10
diagonal:  Solving for rho, Initial residual = 0, Final residual = 0, No Iterations 0
time step continuity errors : sum local = 2.0304e-05, global = 1.01189e-16, cumulative = -4.42074e-14
DICPCG:  Solving for p_rgh, Initial residual = 0.0173969, Final residual = 7.36687e-09, No Iterations 45
diagonal:  Solving for rho, Initial residual = 0, Final residual = 0, No Iterations 0
time step continuity errors : sum local = 5.48629e-09, global = 1.36897e-15, cumulative = -4.28384e-14
DILUPBiCGStab:  Solving for epsilon, Initial residual = 0.0530341, Final residual = 8.09417e-07, No Iterations 2
DILUPBiCGStab:  Solving for k, Initial residual = 0.0641538, Final residual = 6.76951e-08, No Iterations 2
ExecutionTime = 1.57 s  ClockTime = 4 s

Courant Number mean: 0.341484 max: 1.09189
Time = 74

diagonal:  Solving for rho, Initial residual = 0, Final residual = 0, No Iterations 0
PIMPLE: iteration 1
DILUPBiCGStab:  Solving for Ux, Initial residual = 0.0249448, Final residual = 5.30761e-08, No Iterations 2
DILUPBiCGStab:  Solving for Uy, Initial residual = 0.0192684, Final residual = 4.92421e-08, No Iterations 2
DILUPBiCGStab:  Solving for Uz, Initial residual = 0.0249448, Final residual = 5.30762e-08, No Iterations 2
DILUPBiCGStab:  Solving for h, Initial residual = 0.0206319, Final residual = 1.87101e-07, No Iterations 2
DICPCG:  Solving for p_rgh, Initial residual = 0.0601548, Final residual = 0.000581985, No Iterations 10
diagonal:  Solving for rho, Initial residual = 0, Final residual = 0, No Iterations 0
time step continuity errors : sum local = 2.13852e-05, global = -3.57212e-15, cumulative = -4.64105e-14
DICPCG:  Solving for p_rgh, Initial residual = 0.0177349, Final residual = 7.36898e-09, No Iterations 45
diagonal:  Solving for rho, Initial residual = 0, Final residual = 0, No Iterations 0
time step continuity errors : sum local = 5.44515e-09, global = 9.41649e-16, cumulative = -4.54689e-14
DILUPBiCGStab:  Solving for epsilon, Initial residual = 0.0514612, Final residual = 8.15732e-07, No Iterations 2
DILUPBiCGStab:  Solving for k, Initial residual = 0.0620815, Final residual = 6.05461e-08, No Iterations 2
ExecutionTime = 1.6 s  ClockTime = 4 s

Courant Number mean: 0.332346 max: 1.10828
Time = 76

diagonal:  Solving for rho, Initial residual = 0, Final residual = 0, No Iterations 0
PIMPLE: iteration 1
DILUPBiCGStab:  Solving for Ux, Initial residual = 0.025806, Final residual = 4.86768e-08, No Iterations 2
DILUPBiCGStab:  Solving for Uy, Initial residual = 0.0197117, Final residual = 4.14663e-08, No Iterations 2
DILUPBiCGStab:  Solving for Uz, Initial residual = 0.0258061, Final residual = 4.86767e-08, No Iterations 2
DILUPBiCGStab:  Solving for h, Initial residual = 0.0206828, Final residual = 1.68938e-07, No Iterations 2
DICPCG:  Solving for p_rgh, Initial residual = 0.0630664, Final residual = 0.000522948, No Iterations 13
diagonal:  Solving for rho, Initial residual = 0, Final residual = 0, No Iterations 0
time step continuity errors : sum local = 1.9575e-05, global = 4.48929e-16, cumulative = -4.502e-14
DICPCG:  Solving for p_rgh, Initial residual = 0.0182791, Final residual = 7.08629e-09, No Iterations 45
diagonal:  Solving for rho, Initial residual = 0, Final residual = 0, No Iterations 0
time step continuity errors : sum local = 3.88761e-09, global = -1.79878e-15, cumulative = -4.68187e-14
DILUPBiCGStab:  Solving for epsilon, Initial residual = 0.0501819, Final residual = 8.12682e-07, No Iterations 2
DILUPBiCGStab:  Solving for k, Initial residual = 0.0601934, Final residual = 5.49251e-08, No Iterations 2
ExecutionTime = 1.63 s  ClockTime = 4 s

Courant Number mean: 0.323607 max: 1.12128
Time = 78

diagonal:  Solving for rho, Initial residual = 0, Final residual = 0, No Iterations 0
PIMPLE: iteration 1
DILUPBiCGStab:  Solving for Ux, Initial residual = 0.0266892, Final residual = 4.34545e-08, No Iterations 2
DILUPBiCGStab:  Solving for Uy, Initial residual = 0.0202347, Final residual = 3.83748e-08, No Iterations 2
DILUPBiCGStab:  Solving for Uz, Initial residual = 0.0266892, Final residual = 4.34543e-08, No Iterations 2
DILUPBiCGStab:  Solving for h, Initial residual = 0.020651, Final residual = 1.58638e-07, No Iterations 2
DICPCG:  Solving for p_rgh, Initial residual = 0.0646874, Final residual = 0.000543849, No Iterations 13
diagonal:  Solving for rho, Initial residual = 0, Final residual = 0, No Iterations 0
time step continuity errors : sum local = 2.03499e-05, global = 2.78269e-15, cumulative = -4.4036e-14
DICPCG:  Solving for p_rgh, Initial residual = 0.0187689, Final residual = 6.7233e-09, No Iterations 45
diagonal:  Solving for rho, Initial residual = 0, Final residual = 0, No Iterations 0
time step continuity errors : sum local = 3.80254e-09, global = 1.65725e-15, cumulative = -4.23788e-14
DILUPBiCGStab:  Solving for epsilon, Initial residual = 0.0489644, Final residual = 7.96107e-07, No Iterations 2
DILUPBiCGStab:  Solving for k, Initial residual = 0.0583292, Final residual = 4.96382e-08, No Iterations 2
ExecutionTime = 1.66 s  ClockTime = 4 s

Courant Number mean: 0.315379 max: 1.13799
Time = 80

diagonal:  Solving for rho, Initial residual = 0, Final residual = 0, No Iterations 0
PIMPLE: iteration 1
DILUPBiCGStab:  Solving for Ux, Initial residual = 0.027678, Final residual = 3.97596e-08, No Iterations 2
DILUPBiCGStab:  Solving for Uy, Initial residual = 0.0208044, Final residual = 3.75407e-08, No Iterations 2
DILUPBiCGStab:  Solving for Uz, Initial residual = 0.027678, Final residual = 3.97594e-08, No Iterations 2
DILUPBiCGStab:  Solving for h, Initial residual = 0.020598, Final residual = 1.55802e-07, No Iterations 2
DICPCG:  Solving for p_rgh, Initial residual = 0.0667221, Final residual = 0.000561127, No Iterations 13
diagonal:  Solving for rho, Initial residual = 0, Final residual = 0, No Iterations 0
time step continuity errors : sum local = 2.09452e-05, global = -1.72778e-15, cumulative = -4.41066e-14
DICPCG:  Solving for p_rgh, Initial residual = 0.0194001, Final residual = 8.85072e-09, No Iterations 44
diagonal:  Solving for rho, Initial residual = 0, Final residual = 0, No Iterations 0
time step continuity errors : sum local = 3.54587e-09, global = -4.85567e-15, cumulative = -4.89622e-14
DILUPBiCGStab:  Solving for epsilon, Initial residual = 0.0477714, Final residual = 7.55603e-07, No Iterations 2
DILUPBiCGStab:  Solving for k, Initial residual = 0.0565218, Final residual = 4.43785e-08, No Iterations 2
ExecutionTime = 1.7 s  ClockTime = 4 s

Courant Number mean: 0.30753 max: 1.15281
Time = 82

diagonal:  Solving for rho, Initial residual = 0, Final residual = 0, No Iterations 0
PIMPLE: iteration 1
DILUPBiCGStab:  Solving for Ux, Initial residual = 0.0287084, Final residual = 4.79599e-08, No Iterations 2
DILUPBiCGStab:  Solving for Uy, Initial residual = 0.0214471, Final residual = 9.02546e-07, No Iterations 2
DILUPBiCGStab:  Solving for Uz, Initial residual = 0.0287083, Final residual = 4.796e-08, No Iterations 2
DILUPBiCGStab:  Solving for h, Initial residual = 0.0205349, Final residual = 1.55221e-07, No Iterations 2
DICPCG:  Solving for p_rgh, Initial residual = 0.069692, Final residual = 0.000573905, No Iterations 13
diagonal:  Solving for rho, Initial residual = 0, Final residual = 0, No Iterations 0
time step continuity errors : sum local = 2.13919e-05, global = 3.27828e-15, cumulative = -4.5684e-14
DICPCG:  Solving for p_rgh, Initial residual = 0.0198811, Final residual = 7.45839e-09, No Iterations 44
diagonal:  Solving for rho, Initial residual = 0, Final residual = 0, No Iterations 0
time step continuity errors : sum local = 3.45183e-09, global = 7.91831e-16, cumulative = -4.48921e-14
DILUPBiCGStab:  Solving for epsilon, Initial residual = 0.0464966, Final residual = 7.01252e-07, No Iterations 2
DILUPBiCGStab:  Solving for k, Initial residual = 0.0547284, Final residual = 3.9787e-08, No Iterations 2
ExecutionTime = 1.72 s  ClockTime = 4 s

Courant Number mean: 0.30013 max: 1.16297
Time = 84

diagonal:  Solving for rho, Initial residual = 0, Final residual = 0, No Iterations 0
PIMPLE: iteration 1
DILUPBiCGStab:  Solving for Ux, Initial residual = 0.0297683, Final residual = 8.528e-08, No Iterations 2
DILUPBiCGStab:  Solving for Uy, Initial residual = 0.0220707, Final residual = 4.32066e-08, No Iterations 2
DILUPBiCGStab:  Solving for Uz, Initial residual = 0.0297683, Final residual = 8.52821e-08, No Iterations 2
DILUPBiCGStab:  Solving for h, Initial residual = 0.0204893, Final residual = 1.57568e-07, No Iterations 2
DICPCG:  Solving for p_rgh, Initial residual = 0.0715734, Final residual = 0.00059738, No Iterations 13
diagonal:  Solving for rho, Initial residual = 0, Final residual = 0, No Iterations 0
time step continuity errors : sum local = 2.22384e-05, global = 4.81921e-15, cumulative = -4.00729e-14
DICPCG:  Solving for p_rgh, Initial residual = 0.0204092, Final residual = 6.79029e-09, No Iterations 43
diagonal:  Solving for rho, Initial residual = 0, Final residual = 0, No Iterations 0
time step continuity errors : sum local = 2.99675e-09, global = 1.79572e-16, cumulative = -3.98933e-14
DILUPBiCGStab:  Solving for epsilon, Initial residual = 0.0452678, Final residual = 6.65481e-07, No Iterations 2
DILUPBiCGStab:  Solving for k, Initial residual = 0.0531054, Final residual = 3.65309e-08, No Iterations 2
ExecutionTime = 1.75 s  ClockTime = 4 s

Courant Number mean: 0.293299 max: 1.16881
Time = 86

diagonal:  Solving for rho, Initial residual = 0, Final residual = 0, No Iterations 0
PIMPLE: iteration 1
DILUPBiCGStab:  Solving for Ux, Initial residual = 0.0308778, Final residual = 1.85382e-07, No Iterations 2
DILUPBiCGStab:  Solving for Uy, Initial residual = 0.0226306, Final residual = 1.80411e-07, No Iterations 2
DILUPBiCGStab:  Solving for Uz, Initial residual = 0.0308778, Final residual = 1.85388e-07, No Iterations 2
DILUPBiCGStab:  Solving for h, Initial residual = 0.0205245, Final residual = 1.57288e-07, No Iterations 2
DICPCG:  Solving for p_rgh, Initial residual = 0.0751822, Final residual = 0.000611233, No Iterations 13
diagonal:  Solving for rho, Initial residual = 0, Final residual = 0, No Iterations 0
time step continuity errors : sum local = 2.25745e-05, global = 4.06729e-15, cumulative = -3.58261e-14
DICPCG:  Solving for p_rgh, Initial residual = 0.0212841, Final residual = 7.50972e-09, No Iterations 43
diagonal:  Solving for rho, Initial residual = 0, Final residual = 0, No Iterations 0
time step continuity errors : sum local = 2.37344e-09, global = 3.76751e-15, cumulative = -3.20585e-14
DILUPBiCGStab:  Solving for epsilon, Initial residual = 0.0443317, Final residual = 6.66531e-07, No Iterations 2
DILUPBiCGStab:  Solving for k, Initial residual = 0.0517193, Final residual = 3.57663e-08, No Iterations 2
ExecutionTime = 1.78 s  ClockTime = 4 s

Courant Number mean: 0.287017 max: 1.17087
Time = 88

diagonal:  Solving for rho, Initial residual = 0, Final residual = 0, No Iterations 0
PIMPLE: iteration 1
DILUPBiCGStab:  Solving for Ux, Initial residual = 0.0319506, Final residual = 4.83245e-09, No Iterations 3
DILUPBiCGStab:  Solving for Uy, Initial residual = 0.0231851, Final residual = 3.09795e-09, No Iterations 3
DILUPBiCGStab:  Solving for Uz, Initial residual = 0.0319506, Final residual = 4.83244e-09, No Iterations 3
DILUPBiCGStab:  Solving for h, Initial residual = 0.02044, Final residual = 1.58617e-07, No Iterations 2
DICPCG:  Solving for p_rgh, Initial residual = 0.078074, Final residual = 0.000647182, No Iterations 13
diagonal:  Solving for rho, Initial residual = 0, Final residual = 0, No Iterations 0
time step continuity errors : sum local = 2.35993e-05, global = 2.81814e-16, cumulative = -3.17767e-14
DICPCG:  Solving for p_rgh, Initial residual = 0.0220501, Final residual = 8.42742e-09, No Iterations 44
diagonal:  Solving for rho, Initial residual = 0, Final residual = 0, No Iterations 0
time step continuity errors : sum local = 1.8934e-09, global = -1.64911e-16, cumulative = -3.19416e-14
DILUPBiCGStab:  Solving for epsilon, Initial residual = 0.043319, Final residual = 7.16043e-07, No Iterations 2
DILUPBiCGStab:  Solving for k, Initial residual = 0.0503903, Final residual = 3.68228e-08, No Iterations 2
ExecutionTime = 1.8 s  ClockTime = 4 s

Courant Number mean: 0.28134 max: 1.16971
Time = 90

diagonal:  Solving for rho, Initial residual = 0, Final residual = 0, No Iterations 0
PIMPLE: iteration 1
DILUPBiCGStab:  Solving for Ux, Initial residual = 0.033056, Final residual = 4.7152e-07, No Iterations 2
DILUPBiCGStab:  Solving for Uy, Initial residual = 0.023791, Final residual = 1.89157e-09, No Iterations 3
DILUPBiCGStab:  Solving for Uz, Initial residual = 0.0330561, Final residual = 4.71525e-07, No Iterations 2
DILUPBiCGStab:  Solving for h, Initial residual = 0.0203645, Final residual = 1.6298e-07, No Iterations 2
DICPCG:  Solving for p_rgh, Initial residual = 0.0784436, Final residual = 0.000677894, No Iterations 13
diagonal:  Solving for rho, Initial residual = 0, Final residual = 0, No Iterations 0
time step continuity errors : sum local = 2.4742e-05, global = -1.72653e-15, cumulative = -3.36682e-14
DICPCG:  Solving for p_rgh, Initial residual = 0.0226104, Final residual = 4.57403e-09, No Iterations 45
diagonal:  Solving for rho, Initial residual = 0, Final residual = 0, No Iterations 0
time step continuity errors : sum local = 1.73253e-09, global = 5.207e-16, cumulative = -3.31475e-14
DILUPBiCGStab:  Solving for epsilon, Initial residual = 0.0425377, Final residual = 8.17721e-07, No Iterations 2
DILUPBiCGStab:  Solving for k, Initial residual = 0.0491835, Final residual = 3.90478e-08, No Iterations 2
ExecutionTime = 1.82 s  ClockTime = 4 s

Courant Number mean: 0.276366 max: 1.1657
Time = 92

diagonal:  Solving for rho, Initial residual = 0, Final residual = 0, No Iterations 0
PIMPLE: iteration 1
DILUPBiCGStab:  Solving for Ux, Initial residual = 0.034191, Final residual = 2.32239e-07, No Iterations 2
DILUPBiCGStab:  Solving for Uy, Initial residual = 0.0243042, Final residual = 3.68862e-07, No Iterations 2
DILUPBiCGStab:  Solving for Uz, Initial residual = 0.034191, Final residual = 2.32232e-07, No Iterations 2
DILUPBiCGStab:  Solving for h, Initial residual = 0.0202656, Final residual = 1.65324e-07, No Iterations 2
DICPCG:  Solving for p_rgh, Initial residual = 0.082745, Final residual = 0.000693777, No Iterations 13
diagonal:  Solving for rho, Initial residual = 0, Final residual = 0, No Iterations 0
time step continuity errors : sum local = 2.52284e-05, global = 7.37834e-17, cumulative = -3.30737e-14
DICPCG:  Solving for p_rgh, Initial residual = 0.0235079, Final residual = 5.59441e-09, No Iterations 45
diagonal:  Solving for rho, Initial residual = 0, Final residual = 0, No Iterations 0
time step continuity errors : sum local = 1.39853e-09, global = -4.58737e-15, cumulative = -3.76611e-14
DILUPBiCGStab:  Solving for epsilon, Initial residual = 0.0418125, Final residual = 9.57228e-07, No Iterations 2
DILUPBiCGStab:  Solving for k, Initial residual = 0.0481146, Final residual = 4.20834e-08, No Iterations 2
ExecutionTime = 1.85 s  ClockTime = 4 s

Courant Number mean: 0.271788 max: 1.15914
Time = 94

diagonal:  Solving for rho, Initial residual = 0, Final residual = 0, No Iterations 0
PIMPLE: iteration 1
DILUPBiCGStab:  Solving for Ux, Initial residual = 0.0353122, Final residual = 1.75208e-07, No Iterations 2
DILUPBiCGStab:  Solving for Uy, Initial residual = 0.0246683, Final residual = 5.02731e-07, No Iterations 2
DILUPBiCGStab:  Solving for Uz, Initial residual = 0.0353122, Final residual = 1.75222e-07, No Iterations 2
DILUPBiCGStab:  Solving for h, Initial residual = 0.0202538, Final residual = 1.75947e-07, No Iterations 2
DICPCG:  Solving for p_rgh, Initial residual = 0.0852528, Final residual = 0.000703556, No Iterations 13
diagonal:  Solving for rho, Initial residual = 0, Final residual = 0, No Iterations 0
time step continuity errors : sum local = 2.58959e-05, global = 1.36265e-15, cumulative = -3.62984e-14
DICPCG:  Solving for p_rgh, Initial residual = 0.0244584, Final residual = 5.64039e-09, No Iterations 45
diagonal:  Solving for rho, Initial residual = 0, Final residual = 0, No Iterations 0
time step continuity errors : sum local = 2.50775e-09, global = 5.30345e-15, cumulative = -3.0995e-14
DILUPBiCGStab:  Solving for epsilon, Initial residual = 0.0409684, Final residual = 3.46473e-08, No Iterations 2
DILUPBiCGStab:  Solving for k, Initial residual = 0.0471545, Final residual = 4.55683e-08, No Iterations 2
ExecutionTime = 1.89 s  ClockTime = 4 s

Courant Number mean: 0.267591 max: 1.1501
Time = 96

diagonal:  Solving for rho, Initial residual = 0, Final residual = 0, No Iterations 0
PIMPLE: iteration 1
DILUPBiCGStab:  Solving for Ux, Initial residual = 0.0363902, Final residual = 2.42981e-07, No Iterations 2
DILUPBiCGStab:  Solving for Uy, Initial residual = 0.024919, Final residual = 1.21638e-09, No Iterations 3
DILUPBiCGStab:  Solving for Uz, Initial residual = 0.0363902, Final residual = 2.42977e-07, No Iterations 2
DILUPBiCGStab:  Solving for h, Initial residual = 0.0202051, Final residual = 1.87437e-07, No Iterations 2
DICPCG:  Solving for p_rgh, Initial residual = 0.0871327, Final residual = 0.000716705, No Iterations 13
diagonal:  Solving for rho, Initial residual = 0, Final residual = 0, No Iterations 0
time step continuity errors : sum local = 2.66556e-05, global = -1.77837e-15, cumulative = -3.27733e-14
DICPCG:  Solving for p_rgh, Initial residual = 0.0249583, Final residual = 5.11346e-09, No Iterations 45
diagonal:  Solving for rho, Initial residual = 0, Final residual = 0, No Iterations 0
time step continuity errors : sum local = 3.00343e-09, global = -3.99504e-15, cumulative = -3.67684e-14
DILUPBiCGStab:  Solving for epsilon, Initial residual = 0.040169, Final residual = 3.94724e-08, No Iterations 2
DILUPBiCGStab:  Solving for k, Initial residual = 0.0462307, Final residual = 4.82454e-08, No Iterations 2
ExecutionTime = 1.9 s  ClockTime = 4 s

Courant Number mean: 0.263899 max: 1.14088
Time = 98

diagonal:  Solving for rho, Initial residual = 0, Final residual = 0, No Iterations 0
PIMPLE: iteration 1
DILUPBiCGStab:  Solving for Ux, Initial residual = 0.0372894, Final residual = 5.74958e-07, No Iterations 2
DILUPBiCGStab:  Solving for Uy, Initial residual = 0.0250676, Final residual = 3.55805e-07, No Iterations 2
DILUPBiCGStab:  Solving for Uz, Initial residual = 0.0372894, Final residual = 5.74907e-07, No Iterations 2
DILUPBiCGStab:  Solving for h, Initial residual = 0.020148, Final residual = 2.02929e-07, No Iterations 2
DICPCG:  Solving for p_rgh, Initial residual = 0.0883426, Final residual = 0.000718623, No Iterations 13
diagonal:  Solving for rho, Initial residual = 0, Final residual = 0, No Iterations 0
time step continuity errors : sum local = 2.7376e-05, global = 2.11313e-15, cumulative = -3.46552e-14
DICPCG:  Solving for p_rgh, Initial residual = 0.0256146, Final residual = 9.18388e-09, No Iterations 44
diagonal:  Solving for rho, Initial residual = 0, Final residual = 0, No Iterations 0
time step continuity errors : sum local = 4.43547e-09, global = 4.96275e-15, cumulative = -2.96925e-14
DILUPBiCGStab:  Solving for epsilon, Initial residual = 0.0391105, Final residual = 4.35913e-08, No Iterations 2
DILUPBiCGStab:  Solving for k, Initial residual = 0.0453135, Final residual = 5.04444e-08, No Iterations 2
ExecutionTime = 1.93 s  ClockTime = 4 s

Courant Number mean: 0.260885 max: 1.15586
Time = 100

diagonal:  Solving for rho, Initial residual = 0, Final residual = 0, No Iterations 0
PIMPLE: iteration 1
DILUPBiCGStab:  Solving for Ux, Initial residual = 0.0380395, Final residual = 5.20852e-07, No Iterations 2
DILUPBiCGStab:  Solving for Uy, Initial residual = 0.0251171, Final residual = 1.42033e-07, No Iterations 2
DILUPBiCGStab:  Solving for Uz, Initial residual = 0.0380394, Final residual = 5.20852e-07, No Iterations 2
DILUPBiCGStab:  Solving for h, Initial residual = 0.0200849, Final residual = 2.25723e-07, No Iterations 2
DICPCG:  Solving for p_rgh, Initial residual = 0.0896192, Final residual = 0.000727724, No Iterations 13
diagonal:  Solving for rho, Initial residual = 0, Final residual = 0, No Iterations 0
time step continuity errors : sum local = 2.76615e-05, global = -2.18792e-15, cumulative = -3.18804e-14
DICPCG:  Solving for p_rgh, Initial residual = 0.0256835, Final residual = 7.86331e-09, No Iterations 44
diagonal:  Solving for rho, Initial residual = 0, Final residual = 0, No Iterations 0
time step continuity errors : sum local = 4.03685e-09, global = -4.59029e-15, cumulative = -3.64707e-14
DILUPBiCGStab:  Solving for epsilon, Initial residual = 0.0378717, Final residual = 4.69961e-08, No Iterations 2
DILUPBiCGStab:  Solving for k, Initial residual = 0.0444519, Final residual = 5.28589e-08, No Iterations 2
ExecutionTime = 1.97 s  ClockTime = 4 s

Courant Number mean: 0.258381 max: 1.16589
Time = 102

diagonal:  Solving for rho, Initial residual = 0, Final residual = 0, No Iterations 0
PIMPLE: iteration 1
DILUPBiCGStab:  Solving for Ux, Initial residual = 0.0385459, Final residual = 1.39198e-07, No Iterations 2
DILUPBiCGStab:  Solving for Uy, Initial residual = 0.0251011, Final residual = 8.29377e-08, No Iterations 2
DILUPBiCGStab:  Solving for Uz, Initial residual = 0.0385459, Final residual = 1.39202e-07, No Iterations 2
DILUPBiCGStab:  Solving for h, Initial residual = 0.0200156, Final residual = 2.59013e-07, No Iterations 2
DICPCG:  Solving for p_rgh, Initial residual = 0.0887475, Final residual = 0.000732193, No Iterations 13
diagonal:  Solving for rho, Initial residual = 0, Final residual = 0, No Iterations 0
time step continuity errors : sum local = 2.82327e-05, global = 4.71203e-15, cumulative = -3.17587e-14
DICPCG:  Solving for p_rgh, Initial residual = 0.0258484, Final residual = 7.72289e-09, No Iterations 44
diagonal:  Solving for rho, Initial residual = 0, Final residual = 0, No Iterations 0
time step continuity errors : sum local = 5.38119e-09, global = 1.85771e-15, cumulative = -2.9901e-14
DILUPBiCGStab:  Solving for epsilon, Initial residual = 0.036148, Final residual = 4.92836e-08, No Iterations 2
DILUPBiCGStab:  Solving for k, Initial residual = 0.0434449, Final residual = 5.57098e-08, No Iterations 2
ExecutionTime = 1.99 s  ClockTime = 4 s

Courant Number mean: 0.256344 max: 1.17145
Time = 104

diagonal:  Solving for rho, Initial residual = 0, Final residual = 0, No Iterations 0
PIMPLE: iteration 1
DILUPBiCGStab:  Solving for Ux, Initial residual = 0.0387558, Final residual = 7.05471e-08, No Iterations 2
DILUPBiCGStab:  Solving for Uy, Initial residual = 0.0250156, Final residual = 5.90736e-08, No Iterations 2
DILUPBiCGStab:  Solving for Uz, Initial residual = 0.0387558, Final residual = 7.05475e-08, No Iterations 2
DILUPBiCGStab:  Solving for h, Initial residual = 0.0198976, Final residual = 3.75073e-07, No Iterations 2
DICPCG:  Solving for p_rgh, Initial residual = 0.087096, Final residual = 0.000735381, No Iterations 13
diagonal:  Solving for rho, Initial residual = 0, Final residual = 0, No Iterations 0
time step continuity errors : sum local = 2.85865e-05, global = 5.44282e-15, cumulative = -2.44581e-14
DICPCG:  Solving for p_rgh, Initial residual = 0.0256951, Final residual = 9.28871e-09, No Iterations 44
diagonal:  Solving for rho, Initial residual = 0, Final residual = 0, No Iterations 0
time step continuity errors : sum local = 6.04207e-09, global = -1.04389e-15, cumulative = -2.5502e-14
DILUPBiCGStab:  Solving for epsilon, Initial residual = 0.0343624, Final residual = 5.0583e-08, No Iterations 2
DILUPBiCGStab:  Solving for k, Initial residual = 0.0424063, Final residual = 5.93847e-08, No Iterations 2
ExecutionTime = 2.02 s  ClockTime = 4 s

Courant Number mean: 0.254941 max: 1.17318
Time = 106

diagonal:  Solving for rho, Initial residual = 0, Final residual = 0, No Iterations 0
PIMPLE: iteration 1
DILUPBiCGStab:  Solving for Ux, Initial residual = 0.0387452, Final residual = 4.89423e-08, No Iterations 2
DILUPBiCGStab:  Solving for Uy, Initial residual = 0.0249086, Final residual = 4.97732e-08, No Iterations 2
DILUPBiCGStab:  Solving for Uz, Initial residual = 0.0387452, Final residual = 4.89424e-08, No Iterations 2
DILUPBiCGStab:  Solving for h, Initial residual = 0.0197642, Final residual = 7.83911e-09, No Iterations 3
DICPCG:  Solving for p_rgh, Initial residual = 0.0858507, Final residual = 0.000733895, No Iterations 13
diagonal:  Solving for rho, Initial residual = 0, Final residual = 0, No Iterations 0
time step continuity errors : sum local = 2.86454e-05, global = 8.38352e-16, cumulative = -2.46637e-14
DICPCG:  Solving for p_rgh, Initial residual = 0.0257522, Final residual = 7.17891e-09, No Iterations 45
diagonal:  Solving for rho, Initial residual = 0, Final residual = 0, No Iterations 0
time step continuity errors : sum local = 6.66471e-09, global = 2.0644e-15, cumulative = -2.25993e-14
DILUPBiCGStab:  Solving for epsilon, Initial residual = 0.0322977, Final residual = 5.07241e-08, No Iterations 2
DILUPBiCGStab:  Solving for k, Initial residual = 0.0412287, Final residual = 6.34503e-08, No Iterations 2
ExecutionTime = 2.05 s  ClockTime = 4 s

Courant Number mean: 0.254166 max: 1.17168
Time = 108

diagonal:  Solving for rho, Initial residual = 0, Final residual = 0, No Iterations 0
PIMPLE: iteration 1
DILUPBiCGStab:  Solving for Ux, Initial residual = 0.0383904, Final residual = 3.87807e-08, No Iterations 2
DILUPBiCGStab:  Solving for Uy, Initial residual = 0.0247999, Final residual = 4.75537e-08, No Iterations 2
DILUPBiCGStab:  Solving for Uz, Initial residual = 0.0383904, Final residual = 3.87807e-08, No Iterations 2
DILUPBiCGStab:  Solving for h, Initial residual = 0.019561, Final residual = 8.34541e-07, No Iterations 2
DICPCG:  Solving for p_rgh, Initial residual = 0.0840638, Final residual = 0.000712034, No Iterations 13
diagonal:  Solving for rho, Initial residual = 0, Final residual = 0, No Iterations 0
time step continuity errors : sum local = 2.79216e-05, global = -1.10656e-15, cumulative = -2.37058e-14
DICPCG:  Solving for p_rgh, Initial residual = 0.0256384, Final residual = 8.31287e-09, No Iterations 45
diagonal:  Solving for rho, Initial residual = 0, Final residual = 0, No Iterations 0
time step continuity errors : sum local = 6.96938e-09, global = -1.1102e-15, cumulative = -2.4816e-14
DILUPBiCGStab:  Solving for epsilon, Initial residual = 0.0303592, Final residual = 4.99927e-08, No Iterations 2
DILUPBiCGStab:  Solving for k, Initial residual = 0.0401671, Final residual = 6.78366e-08, No Iterations 2
ExecutionTime = 2.08 s  ClockTime = 4 s

Courant Number mean: 0.253953 max: 1.16746
Time = 110

diagonal:  Solving for rho, Initial residual = 0, Final residual = 0, No Iterations 0
PIMPLE: iteration 1
[...]
DICPCG:  Solving for p_rgh, Initial residual = 0.000386724, Final residual = 2.30643e-06, No Iterations 27
diagonal:  Solving for rho, Initial residual = 0, Final residual = 0, No Iterations 0
time step continuity errors : sum local = 1.34695e-07, global = -1.04447e-17, cumulative = -9.57291e-14
DICPCG:  Solving for p_rgh, Initial residual = 5.26359e-05, Final residual = 5.61651e-09, No Iterations 35
diagonal:  Solving for rho, Initial residual = 0, Final residual = 0, No Iterations 0
time step continuity errors : sum local = 1.78703e-09, global = -8.407e-16, cumulative = -9.65698e-14
DILUPBiCGStab:  Solving for epsilon, Initial residual = 0.000147584, Final residual = 2.6473e-07, No Iterations 1
DILUPBiCGStab:  Solving for k, Initial residual = 0.000263743, Final residual = 8.92521e-09, No Iterations 1
ExecutionTime = 27.52 s  ClockTime = 31 s

Courant Number mean: 0.0810783 max: 0.635484
Time = 1976

diagonal:  Solving for rho, Initial residual = 0, Final residual = 0, No Iterations 0
PIMPLE: iteration 1
DILUPBiCGStab:  Solving for Ux, Initial residual = 0.000413425, Final residual = 5.65731e-07, No Iterations 1
DILUPBiCGStab:  Solving for Uy, Initial residual = 0.000413733, Final residual = 6.09296e-07, No Iterations 1
DILUPBiCGStab:  Solving for Uz, Initial residual = 0.00041351, Final residual = 5.66532e-07, No Iterations 1
DILUPBiCGStab:  Solving for h, Initial residual = 0.0007555, Final residual = 7.30908e-09, No Iterations 1
DICPCG:  Solving for p_rgh, Initial residual = 0.000384863, Final residual = 2.2928e-06, No Iterations 27
diagonal:  Solving for rho, Initial residual = 0, Final residual = 0, No Iterations 0
time step continuity errors : sum local = 1.34179e-07, global = -3.34503e-15, cumulative = -9.99148e-14
DICPCG:  Solving for p_rgh, Initial residual = 5.24892e-05, Final residual = 5.66528e-09, No Iterations 35
diagonal:  Solving for rho, Initial residual = 0, Final residual = 0, No Iterations 0
time step continuity errors : sum local = 1.81353e-09, global = 2.96188e-16, cumulative = -9.96186e-14
DILUPBiCGStab:  Solving for epsilon, Initial residual = 0.00014853, Final residual = 2.63732e-07, No Iterations 1
DILUPBiCGStab:  Solving for k, Initial residual = 0.00026556, Final residual = 9.00365e-09, No Iterations 1
ExecutionTime = 27.54 s  ClockTime = 31 s

Courant Number mean: 0.0810836 max: 0.635251
Time = 1978

diagonal:  Solving for rho, Initial residual = 0, Final residual = 0, No Iterations 0
PIMPLE: iteration 1
DILUPBiCGStab:  Solving for Ux, Initial residual = 0.000412135, Final residual = 5.69971e-07, No Iterations 1
DILUPBiCGStab:  Solving for Uy, Initial residual = 0.000411684, Final residual = 6.11283e-07, No Iterations 1
DILUPBiCGStab:  Solving for Uz, Initial residual = 0.000412197, Final residual = 5.69628e-07, No Iterations 1
DILUPBiCGStab:  Solving for h, Initial residual = 0.000756715, Final residual = 7.31678e-09, No Iterations 1
DICPCG:  Solving for p_rgh, Initial residual = 0.000385177, Final residual = 2.30269e-06, No Iterations 27
diagonal:  Solving for rho, Initial residual = 0, Final residual = 0, No Iterations 0
time step continuity errors : sum local = 1.3482e-07, global = -2.45014e-15, cumulative = -1.02069e-13
DICPCG:  Solving for p_rgh, Initial residual = 5.30646e-05, Final residual = 5.70263e-09, No Iterations 35
diagonal:  Solving for rho, Initial residual = 0, Final residual = 0, No Iterations 0
time step continuity errors : sum local = 1.84196e-09, global = -5.97311e-16, cumulative = -1.02666e-13
DILUPBiCGStab:  Solving for epsilon, Initial residual = 0.000149412, Final residual = 2.62539e-07, No Iterations 1
DILUPBiCGStab:  Solving for k, Initial residual = 0.000267328, Final residual = 9.07762e-09, No Iterations 1
ExecutionTime = 27.57 s  ClockTime = 32 s

Courant Number mean: 0.0810885 max: 0.635011
Time = 1980

diagonal:  Solving for rho, Initial residual = 0, Final residual = 0, No Iterations 0
PIMPLE: iteration 1
DILUPBiCGStab:  Solving for Ux, Initial residual = 0.000410608, Final residual = 5.73661e-07, No Iterations 1
DILUPBiCGStab:  Solving for Uy, Initial residual = 0.000408976, Final residual = 6.09066e-07, No Iterations 1
DILUPBiCGStab:  Solving for Uz, Initial residual = 0.000410494, Final residual = 5.73215e-07, No Iterations 1
DILUPBiCGStab:  Solving for h, Initial residual = 0.000757875, Final residual = 7.32099e-09, No Iterations 1
DICPCG:  Solving for p_rgh, Initial residual = 0.000385902, Final residual = 2.28373e-06, No Iterations 27
diagonal:  Solving for rho, Initial residual = 0, Final residual = 0, No Iterations 0
time step continuity errors : sum local = 1.34039e-07, global = 3.27666e-16, cumulative = -1.02338e-13
DICPCG:  Solving for p_rgh, Initial residual = 5.29451e-05, Final residual = 5.69484e-09, No Iterations 35
diagonal:  Solving for rho, Initial residual = 0, Final residual = 0, No Iterations 0
time step continuity errors : sum local = 1.80949e-09, global = 9.53196e-16, cumulative = -1.01385e-13
DILUPBiCGStab:  Solving for epsilon, Initial residual = 0.000150215, Final residual = 2.61164e-07, No Iterations 1
DILUPBiCGStab:  Solving for k, Initial residual = 0.000269061, Final residual = 9.1483e-09, No Iterations 1
ExecutionTime = 27.6 s  ClockTime = 32 s

Courant Number mean: 0.0810932 max: 0.634766
Time = 1982

diagonal:  Solving for rho, Initial residual = 0, Final residual = 0, No Iterations 0
PIMPLE: iteration 1
DILUPBiCGStab:  Solving for Ux, Initial residual = 0.000408896, Final residual = 5.7707e-07, No Iterations 1
DILUPBiCGStab:  Solving for Uy, Initial residual = 0.000406846, Final residual = 6.09895e-07, No Iterations 1
DILUPBiCGStab:  Solving for Uz, Initial residual = 0.000409042, Final residual = 5.76959e-07, No Iterations 1
DILUPBiCGStab:  Solving for h, Initial residual = 0.000758972, Final residual = 7.32247e-09, No Iterations 1
DICPCG:  Solving for p_rgh, Initial residual = 0.000387852, Final residual = 2.27137e-06, No Iterations 27
diagonal:  Solving for rho, Initial residual = 0, Final residual = 0, No Iterations 0
time step continuity errors : sum local = 1.34132e-07, global = 3.16502e-16, cumulative = -1.01069e-13
DICPCG:  Solving for p_rgh, Initial residual = 5.3375e-05, Final residual = 5.74813e-09, No Iterations 35
diagonal:  Solving for rho, Initial residual = 0, Final residual = 0, No Iterations 0
time step continuity errors : sum local = 1.84915e-09, global = -6.47761e-17, cumulative = -1.01134e-13
DILUPBiCGStab:  Solving for epsilon, Initial residual = 0.00015095, Final residual = 2.59591e-07, No Iterations 1
DILUPBiCGStab:  Solving for k, Initial residual = 0.000270726, Final residual = 9.21367e-09, No Iterations 1
ExecutionTime = 27.61 s  ClockTime = 32 s

Courant Number mean: 0.0810974 max: 0.634513
Time = 1984

diagonal:  Solving for rho, Initial residual = 0, Final residual = 0, No Iterations 0
PIMPLE: iteration 1
DILUPBiCGStab:  Solving for Ux, Initial residual = 0.000407233, Final residual = 5.80245e-07, No Iterations 1
DILUPBiCGStab:  Solving for Uy, Initial residual = 0.000404177, Final residual = 6.09937e-07, No Iterations 1
DILUPBiCGStab:  Solving for Uz, Initial residual = 0.000407096, Final residual = 5.8039e-07, No Iterations 1
DILUPBiCGStab:  Solving for h, Initial residual = 0.000760156, Final residual = 7.32134e-09, No Iterations 1
DICPCG:  Solving for p_rgh, Initial residual = 0.00038731, Final residual = 2.21788e-06, No Iterations 27
diagonal:  Solving for rho, Initial residual = 0, Final residual = 0, No Iterations 0
time step continuity errors : sum local = 1.32417e-07, global = -1.45938e-15, cumulative = -1.02593e-13
DICPCG:  Solving for p_rgh, Initial residual = 5.32342e-05, Final residual = 5.7992e-09, No Iterations 35
diagonal:  Solving for rho, Initial residual = 0, Final residual = 0, No Iterations 0
time step continuity errors : sum local = 1.87353e-09, global = -3.11587e-15, cumulative = -1.05709e-13
DILUPBiCGStab:  Solving for epsilon, Initial residual = 0.000151611, Final residual = 2.57809e-07, No Iterations 1
DILUPBiCGStab:  Solving for k, Initial residual = 0.0002723, Final residual = 9.27355e-09, No Iterations 1
ExecutionTime = 27.63 s  ClockTime = 32 s

Courant Number mean: 0.0811012 max: 0.634255
Time = 1986

diagonal:  Solving for rho, Initial residual = 0, Final residual = 0, No Iterations 0
PIMPLE: iteration 1
DILUPBiCGStab:  Solving for Ux, Initial residual = 0.000406041, Final residual = 5.83597e-07, No Iterations 1
DILUPBiCGStab:  Solving for Uy, Initial residual = 0.000401813, Final residual = 6.10174e-07, No Iterations 1
DILUPBiCGStab:  Solving for Uz, Initial residual = 0.000406061, Final residual = 5.84053e-07, No Iterations 1
DILUPBiCGStab:  Solving for h, Initial residual = 0.000761331, Final residual = 7.31878e-09, No Iterations 1
DICPCG:  Solving for p_rgh, Initial residual = 0.000389025, Final residual = 2.22844e-06, No Iterations 27
diagonal:  Solving for rho, Initial residual = 0, Final residual = 0, No Iterations 0
time step continuity errors : sum local = 1.33068e-07, global = 3.59589e-15, cumulative = -1.02113e-13
DICPCG:  Solving for p_rgh, Initial residual = 5.37454e-05, Final residual = 5.82527e-09, No Iterations 35
diagonal:  Solving for rho, Initial residual = 0, Final residual = 0, No Iterations 0
time step continuity errors : sum local = 1.80777e-09, global = 2.97194e-16, cumulative = -1.01816e-13
DILUPBiCGStab:  Solving for epsilon, Initial residual = 0.000152203, Final residual = 2.55788e-07, No Iterations 1
DILUPBiCGStab:  Solving for k, Initial residual = 0.000273808, Final residual = 9.32765e-09, No Iterations 1
ExecutionTime = 27.66 s  ClockTime = 32 s

Courant Number mean: 0.0811047 max: 0.633992
Time = 1988

diagonal:  Solving for rho, Initial residual = 0, Final residual = 0, No Iterations 0
PIMPLE: iteration 1
DILUPBiCGStab:  Solving for Ux, Initial residual = 0.000404293, Final residual = 5.87941e-07, No Iterations 1
DILUPBiCGStab:  Solving for Uy, Initial residual = 0.000398538, Final residual = 6.07298e-07, No Iterations 1
DILUPBiCGStab:  Solving for Uz, Initial residual = 0.000404296, Final residual = 5.87873e-07, No Iterations 1
DILUPBiCGStab:  Solving for h, Initial residual = 0.000762494, Final residual = 7.31388e-09, No Iterations 1
DICPCG:  Solving for p_rgh, Initial residual = 0.000385012, Final residual = 2.19482e-06, No Iterations 27
diagonal:  Solving for rho, Initial residual = 0, Final residual = 0, No Iterations 0
time step continuity errors : sum local = 1.32738e-07, global = 6.74783e-16, cumulative = -1.01141e-13
DICPCG:  Solving for p_rgh, Initial residual = 5.34819e-05, Final residual = 5.93882e-09, No Iterations 35
diagonal:  Solving for rho, Initial residual = 0, Final residual = 0, No Iterations 0
time step continuity errors : sum local = 1.86091e-09, global = 7.14693e-16, cumulative = -1.00426e-13
DILUPBiCGStab:  Solving for epsilon, Initial residual = 0.000152726, Final residual = 2.53615e-07, No Iterations 1
DILUPBiCGStab:  Solving for k, Initial residual = 0.000275262, Final residual = 9.37652e-09, No Iterations 1
ExecutionTime = 27.68 s  ClockTime = 32 s

Courant Number mean: 0.0811078 max: 0.633722
Time = 1990

diagonal:  Solving for rho, Initial residual = 0, Final residual = 0, No Iterations 0
PIMPLE: iteration 1
DILUPBiCGStab:  Solving for Ux, Initial residual = 0.000403139, Final residual = 5.91685e-07, No Iterations 1
DILUPBiCGStab:  Solving for Uy, Initial residual = 0.000396237, Final residual = 6.08119e-07, No Iterations 1
DILUPBiCGStab:  Solving for Uz, Initial residual = 0.000403181, Final residual = 5.92352e-07, No Iterations 1
DILUPBiCGStab:  Solving for h, Initial residual = 0.000763658, Final residual = 7.30784e-09, No Iterations 1
DICPCG:  Solving for p_rgh, Initial residual = 0.000389118, Final residual = 2.21988e-06, No Iterations 27
diagonal:  Solving for rho, Initial residual = 0, Final residual = 0, No Iterations 0
time step continuity errors : sum local = 1.33312e-07, global = -1.43255e-17, cumulative = -1.00441e-13
DICPCG:  Solving for p_rgh, Initial residual = 5.40219e-05, Final residual = 5.92594e-09, No Iterations 35
diagonal:  Solving for rho, Initial residual = 0, Final residual = 0, No Iterations 0
time step continuity errors : sum local = 1.78689e-09, global = 6.27974e-16, cumulative = -9.98125e-14
DILUPBiCGStab:  Solving for epsilon, Initial residual = 0.000153191, Final residual = 2.51309e-07, No Iterations 1
DILUPBiCGStab:  Solving for k, Initial residual = 0.000276649, Final residual = 9.42035e-09, No Iterations 1
ExecutionTime = 27.71 s  ClockTime = 32 s

Courant Number mean: 0.0811105 max: 0.633448
Time = 1992

diagonal:  Solving for rho, Initial residual = 0, Final residual = 0, No Iterations 0
PIMPLE: iteration 1
DILUPBiCGStab:  Solving for Ux, Initial residual = 0.000401082, Final residual = 5.94718e-07, No Iterations 1
DILUPBiCGStab:  Solving for Uy, Initial residual = 0.000393297, Final residual = 6.06494e-07, No Iterations 1
DILUPBiCGStab:  Solving for Uz, Initial residual = 0.000401116, Final residual = 5.95191e-07, No Iterations 1
DILUPBiCGStab:  Solving for h, Initial residual = 0.000764893, Final residual = 7.30406e-09, No Iterations 1
DICPCG:  Solving for p_rgh, Initial residual = 0.000389928, Final residual = 3.89682e-06, No Iterations 13
diagonal:  Solving for rho, Initial residual = 0, Final residual = 0, No Iterations 0
time step continuity errors : sum local = 1.18933e-07, global = 4.63494e-16, cumulative = -9.93491e-14
DICPCG:  Solving for p_rgh, Initial residual = 5.25854e-05, Final residual = 9.04063e-09, No Iterations 34
diagonal:  Solving for rho, Initial residual = 0, Final residual = 0, No Iterations 0
time step continuity errors : sum local = 1.72978e-09, global = -2.01065e-15, cumulative = -1.0136e-13
DILUPBiCGStab:  Solving for epsilon, Initial residual = 0.000153583, Final residual = 2.49019e-07, No Iterations 1
DILUPBiCGStab:  Solving for k, Initial residual = 0.000277955, Final residual = 9.45894e-09, No Iterations 1
ExecutionTime = 27.74 s  ClockTime = 32 s

Courant Number mean: 0.0811129 max: 0.633168
Time = 1994

diagonal:  Solving for rho, Initial residual = 0, Final residual = 0, No Iterations 0
PIMPLE: iteration 1
DILUPBiCGStab:  Solving for Ux, Initial residual = 0.000399379, Final residual = 5.98611e-07, No Iterations 1
DILUPBiCGStab:  Solving for Uy, Initial residual = 0.000390414, Final residual = 6.06351e-07, No Iterations 1
DILUPBiCGStab:  Solving for Uz, Initial residual = 0.000399519, Final residual = 5.99585e-07, No Iterations 1
DILUPBiCGStab:  Solving for h, Initial residual = 0.000766112, Final residual = 7.29511e-09, No Iterations 1
DICPCG:  Solving for p_rgh, Initial residual = 0.000390686, Final residual = 3.83644e-06, No Iterations 13
diagonal:  Solving for rho, Initial residual = 0, Final residual = 0, No Iterations 0
time step continuity errors : sum local = 1.18091e-07, global = 3.06177e-15, cumulative = -9.82979e-14
DICPCG:  Solving for p_rgh, Initial residual = 5.30422e-05, Final residual = 8.87471e-09, No Iterations 34
diagonal:  Solving for rho, Initial residual = 0, Final residual = 0, No Iterations 0
time step continuity errors : sum local = 1.68153e-09, global = 4.14912e-17, cumulative = -9.82564e-14
DILUPBiCGStab:  Solving for epsilon, Initial residual = 0.000153911, Final residual = 2.46666e-07, No Iterations 1
DILUPBiCGStab:  Solving for k, Initial residual = 0.000279178, Final residual = 9.49201e-09, No Iterations 1
ExecutionTime = 27.75 s  ClockTime = 32 s

Courant Number mean: 0.0811148 max: 0.632883
Time = 1996

diagonal:  Solving for rho, Initial residual = 0, Final residual = 0, No Iterations 0
PIMPLE: iteration 1
DILUPBiCGStab:  Solving for Ux, Initial residual = 0.000397261, Final residual = 6.01732e-07, No Iterations 1
DILUPBiCGStab:  Solving for Uy, Initial residual = 0.000387618, Final residual = 6.04796e-07, No Iterations 1
DILUPBiCGStab:  Solving for Uz, Initial residual = 0.000397397, Final residual = 6.02067e-07, No Iterations 1
DILUPBiCGStab:  Solving for h, Initial residual = 0.000767399, Final residual = 7.2849e-09, No Iterations 1
DICPCG:  Solving for p_rgh, Initial residual = 0.000391255, Final residual = 3.78377e-06, No Iterations 13
diagonal:  Solving for rho, Initial residual = 0, Final residual = 0, No Iterations 0
time step continuity errors : sum local = 1.1753e-07, global = 3.51094e-15, cumulative = -9.47455e-14
DICPCG:  Solving for p_rgh, Initial residual = 5.28699e-05, Final residual = 9.34194e-09, No Iterations 34
diagonal:  Solving for rho, Initial residual = 0, Final residual = 0, No Iterations 0
time step continuity errors : sum local = 1.67675e-09, global = 8.41898e-16, cumulative = -9.39036e-14
DILUPBiCGStab:  Solving for epsilon, Initial residual = 0.000154163, Final residual = 2.44201e-07, No Iterations 1
DILUPBiCGStab:  Solving for k, Initial residual = 0.000280332, Final residual = 9.51914e-09, No Iterations 1
ExecutionTime = 27.79 s  ClockTime = 32 s

Courant Number mean: 0.0811165 max: 0.632593
Time = 1998

diagonal:  Solving for rho, Initial residual = 0, Final residual = 0, No Iterations 0
PIMPLE: iteration 1
DILUPBiCGStab:  Solving for Ux, Initial residual = 0.000395864, Final residual = 6.0639e-07, No Iterations 1
DILUPBiCGStab:  Solving for Uy, Initial residual = 0.000384668, Final residual = 6.04242e-07, No Iterations 1
DILUPBiCGStab:  Solving for Uz, Initial residual = 0.000395808, Final residual = 6.061e-07, No Iterations 1
DILUPBiCGStab:  Solving for h, Initial residual = 0.000768857, Final residual = 7.27313e-09, No Iterations 1
DICPCG:  Solving for p_rgh, Initial residual = 0.000391966, Final residual = 3.78151e-06, No Iterations 13
diagonal:  Solving for rho, Initial residual = 0, Final residual = 0, No Iterations 0
time step continuity errors : sum local = 1.17727e-07, global = 2.52038e-15, cumulative = -9.13832e-14
DICPCG:  Solving for p_rgh, Initial residual = 5.33275e-05, Final residual = 9.1897e-09, No Iterations 34
diagonal:  Solving for rho, Initial residual = 0, Final residual = 0, No Iterations 0
time step continuity errors : sum local = 1.75278e-09, global = 2.11179e-15, cumulative = -8.92714e-14
DILUPBiCGStab:  Solving for epsilon, Initial residual = 0.000154359, Final residual = 2.4163e-07, No Iterations 1
DILUPBiCGStab:  Solving for k, Initial residual = 0.000281403, Final residual = 9.54196e-09, No Iterations 1
ExecutionTime = 27.81 s  ClockTime = 32 s

Courant Number mean: 0.0811176 max: 0.632299
Time = 2000

diagonal:  Solving for rho, Initial residual = 0, Final residual = 0, No Iterations 0
PIMPLE: iteration 1
DILUPBiCGStab:  Solving for Ux, Initial residual = 0.00039368, Final residual = 6.08795e-07, No Iterations 1
DILUPBiCGStab:  Solving for Uy, Initial residual = 0.000382163, Final residual = 6.04053e-07, No Iterations 1
DILUPBiCGStab:  Solving for Uz, Initial residual = 0.000393599, Final residual = 6.0871e-07, No Iterations 1
DILUPBiCGStab:  Solving for h, Initial residual = 0.00077075, Final residual = 7.26135e-09, No Iterations 1
DICPCG:  Solving for p_rgh, Initial residual = 0.0003918, Final residual = 3.81294e-06, No Iterations 13
diagonal:  Solving for rho, Initial residual = 0, Final residual = 0, No Iterations 0
time step continuity errors : sum local = 1.18496e-07, global = 1.17469e-15, cumulative = -8.80967e-14
DICPCG:  Solving for p_rgh, Initial residual = 5.3199e-05, Final residual = 9.50839e-09, No Iterations 34
diagonal:  Solving for rho, Initial residual = 0, Final residual = 0, No Iterations 0
time step continuity errors : sum local = 1.70506e-09, global = -2.12132e-15, cumulative = -9.02181e-14
DILUPBiCGStab:  Solving for epsilon, Initial residual = 0.000154486, Final residual = 2.39017e-07, No Iterations 1
DILUPBiCGStab:  Solving for k, Initial residual = 0.000282382, Final residual = 9.55882e-09, No Iterations 1
ExecutionTime = 27.9 s  ClockTime = 32 s

    functionObjects::heatTransferCoeff htc writing field: heatTransferCoeff(T)
End

