/*---------------------------------------------------------------------------*\
| =========                 |                                                 |
| \\      /  F ield         | OpenFOAM: The Open Source CFD Toolbox           |
|  \\    /   O peration     | Version:  v2012                                 |
|   \\  /    A nd           | Website:  www.openfoam.com                      |
|    \\/     M anipulation  |                                                 |
\*---------------------------------------------------------------------------*/
Build  : _7bdb509494-20201222 OPENFOAM=2012
Arch   : "LSB;label=32;scalar=64"
Exec   : buoyantPimpleFoam
Date   : Aug 07 2021
Time   : 15:51:41
Host   : DESKTOP-DOBVM7I
PID    : 874
I/O    : uncollated
Case   : /mnt/c/Users/TSam/tutorials/heatTransfer/buoyantPimpleFoam/thermocoupleTestCase
nProcs : 1
trapFpe: Floating point exception trapping enabled (FOAM_SIGFPE).
fileModificationChecking : Monitoring run-time modified files using timeStampMaster (fileModificationSkew 5, maxFileModificationPolls 20)
allowSystemOperations : Allowing user-supplied system call operations

// * * * * * * * * * * * * * * * * * * * * * * * * * * * * * * * * * * * * * //
Create time

Create mesh for time = 0


PIMPLE: Operating solver in PISO mode

Reading thermophysical properties

Selecting thermodynamics package 
{
    type            heRhoThermo;
    mixture         pureMixture;
    transport       const;
    thermo          hConst;
    equationOfState perfectGas;
    specie          specie;
    energy          sensibleEnthalpy;
}

Reading field U

Reading/calculating face flux field phi

Creating turbulence model

Selecting turbulence model type laminar
Selecting laminar stress model Stokes

Reading g

Reading hRef
Calculating field g.h

Reading field p_rgh

Creating field dpdt

Creating field kinetic energy K

No MRF models present

Selecting radiationModel fvDOM
Selecting absorptionEmissionModel constantAbsorptionEmission
Selecting scatterModel none
Selecting sootModel none
fvDOM : Allocated 60 rays with average orientation:
	I0 : dAve : 	(0.010235 0.0381976 0.0904495) : omega : 	0.0999985 : d : 	(0.0799795 0.298487 0.951057)
	I1 : dAve : 	(0.0279626 0.0279626 0.0904495) : omega : 	0.0999985 : d : 	(0.218508 0.218508 0.951057)
	I2 : dAve : 	(0.0381976 0.010235 0.0904495) : omega : 	0.0999985 : d : 	(0.298487 0.0799795 0.951057)
	I3 : dAve : 	(0.0381976 -0.010235 0.0904495) : omega : 	0.0999985 : d : 	(0.298487 -0.0799795 0.951057)
	I4 : dAve : 	(0.0279626 -0.0279626 0.0904495) : omega : 	0.0999985 : d : 	(0.218508 -0.218508 0.951057)
	I5 : dAve : 	(0.010235 -0.0381976 0.0904495) : omega : 	0.0999985 : d : 	(0.0799795 -0.298487 0.951057)
	I6 : dAve : 	(-0.010235 -0.0381976 0.0904495) : omega : 	0.0999985 : d : 	(-0.0799795 -0.298487 0.951057)
	I7 : dAve : 	(-0.0279626 -0.0279626 0.0904495) : omega : 	0.0999985 : d : 	(-0.218508 -0.218508 0.951057)
	I8 : dAve : 	(-0.0381976 -0.010235 0.0904495) : omega : 	0.0999985 : d : 	(-0.298487 -0.0799795 0.951057)
	I9 : dAve : 	(-0.0381976 0.010235 0.0904495) : omega : 	0.0999985 : d : 	(-0.298487 0.0799795 0.951057)
	I10 : dAve : 	(-0.0279626 0.0279626 0.0904495) : omega : 	0.0999985 : d : 	(-0.218508 0.218508 0.951057)
	I11 : dAve : 	(-0.010235 0.0381976 0.0904495) : omega : 	0.0999985 : d : 	(-0.0799795 0.298487 0.951057)
	I12 : dAve : 	(0.0542566 0.202489 0.14635) : omega : 	0.261799 : d : 	(0.209389 0.78145 0.587785)
	I13 : dAve : 	(0.148232 0.148232 0.14635) : omega : 	0.261799 : d : 	(0.572061 0.572061 0.587785)
	I14 : dAve : 	(0.202489 0.0542566 0.14635) : omega : 	0.261799 : d : 	(0.78145 0.209389 0.587785)
	I15 : dAve : 	(0.202489 -0.0542566 0.14635) : omega : 	0.261799 : d : 	(0.78145 -0.209389 0.587785)
	I16 : dAve : 	(0.148232 -0.148232 0.14635) : omega : 	0.261799 : d : 	(0.572061 -0.572061 0.587785)
	I17 : dAve : 	(0.0542566 -0.202489 0.14635) : omega : 	0.261799 : d : 	(0.209389 -0.78145 0.587785)
	I18 : dAve : 	(-0.0542566 -0.202489 0.14635) : omega : 	0.261799 : d : 	(-0.209389 -0.78145 0.587785)
	I19 : dAve : 	(-0.148232 -0.148232 0.14635) : omega : 	0.261799 : d : 	(-0.572061 -0.572061 0.587785)
	I20 : dAve : 	(-0.202489 -0.0542566 0.14635) : omega : 	0.261799 : d : 	(-0.78145 -0.209389 0.587785)
	I21 : dAve : 	(-0.202489 0.0542566 0.14635) : omega : 	0.261799 : d : 	(-0.78145 0.209389 0.587785)
	I22 : dAve : 	(-0.148232 0.148232 0.14635) : omega : 	0.261799 : d : 	(-0.572061 0.572061 0.587785)
	I23 : dAve : 	(-0.0542566 0.202489 0.14635) : omega : 	0.261799 : d : 	(-0.209389 0.78145 0.587785)
	I24 : dAve : 	(0.0814635 0.304026 1.88451e-17) : omega : 	0.323602 : d : 	(0.258819 0.965926 6.12323e-17)
	I25 : dAve : 	(0.222562 0.222562 1.88451e-17) : omega : 	0.323602 : d : 	(0.707107 0.707107 6.12323e-17)
	I26 : dAve : 	(0.304026 0.0814635 1.88451e-17) : omega : 	0.323602 : d : 	(0.965926 0.258819 6.12323e-17)
	I27 : dAve : 	(0.304026 -0.0814635 1.88451e-17) : omega : 	0.323602 : d : 	(0.965926 -0.258819 6.12323e-17)
	I28 : dAve : 	(0.222562 -0.222562 1.88451e-17) : omega : 	0.323602 : d : 	(0.707107 -0.707107 6.12323e-17)
	I29 : dAve : 	(0.0814635 -0.304026 1.88451e-17) : omega : 	0.323602 : d : 	(0.258819 -0.965926 6.12323e-17)
	I30 : dAve : 	(-0.0814635 -0.304026 1.88451e-17) : omega : 	0.323602 : d : 	(-0.258819 -0.965926 6.12323e-17)
	I31 : dAve : 	(-0.222562 -0.222562 1.88451e-17) : omega : 	0.323602 : d : 	(-0.707107 -0.707107 6.12323e-17)
	I32 : dAve : 	(-0.304026 -0.0814635 1.88451e-17) : omega : 	0.323602 : d : 	(-0.965926 -0.258819 6.12323e-17)
	I33 : dAve : 	(-0.304026 0.0814635 1.88451e-17) : omega : 	0.323602 : d : 	(-0.965926 0.258819 6.12323e-17)
	I34 : dAve : 	(-0.222562 0.222562 1.88451e-17) : omega : 	0.323602 : d : 	(-0.707107 0.707107 6.12323e-17)
	I35 : dAve : 	(-0.0814635 0.304026 1.88451e-17) : omega : 	0.323602 : d : 	(-0.258819 0.965926 6.12323e-17)
	I36 : dAve : 	(0.0542566 0.202489 -0.14635) : omega : 	0.261799 : d : 	(0.209389 0.78145 -0.587785)
	I37 : dAve : 	(0.148232 0.148232 -0.14635) : omega : 	0.261799 : d : 	(0.572061 0.572061 -0.587785)
	I38 : dAve : 	(0.202489 0.0542566 -0.14635) : omega : 	0.261799 : d : 	(0.78145 0.209389 -0.587785)
	I39 : dAve : 	(0.202489 -0.0542566 -0.14635) : omega : 	0.261799 : d : 	(0.78145 -0.209389 -0.587785)
	I40 : dAve : 	(0.148232 -0.148232 -0.14635) : omega : 	0.261799 : d : 	(0.572061 -0.572061 -0.587785)
	I41 : dAve : 	(0.0542566 -0.202489 -0.14635) : omega : 	0.261799 : d : 	(0.209389 -0.78145 -0.587785)
	I42 : dAve : 	(-0.0542566 -0.202489 -0.14635) : omega : 	0.261799 : d : 	(-0.209389 -0.78145 -0.587785)
	I43 : dAve : 	(-0.148232 -0.148232 -0.14635) : omega : 	0.261799 : d : 	(-0.572061 -0.572061 -0.587785)
	I44 : dAve : 	(-0.202489 -0.0542566 -0.14635) : omega : 	0.261799 : d : 	(-0.78145 -0.209389 -0.587785)
	I45 : dAve : 	(-0.202489 0.0542566 -0.14635) : omega : 	0.261799 : d : 	(-0.78145 0.209389 -0.587785)
	I46 : dAve : 	(-0.148232 0.148232 -0.14635) : omega : 	0.261799 : d : 	(-0.572061 0.572061 -0.587785)
	I47 : dAve : 	(-0.0542566 0.202489 -0.14635) : omega : 	0.261799 : d : 	(-0.209389 0.78145 -0.587785)
	I48 : dAve : 	(0.010235 0.0381976 -0.0904495) : omega : 	0.0999985 : d : 	(0.0799795 0.298487 -0.951057)
	I49 : dAve : 	(0.0279626 0.0279626 -0.0904495) : omega : 	0.0999985 : d : 	(0.218508 0.218508 -0.951057)
	I50 : dAve : 	(0.0381976 0.010235 -0.0904495) : omega : 	0.0999985 : d : 	(0.298487 0.0799795 -0.951057)
	I51 : dAve : 	(0.0381976 -0.010235 -0.0904495) : omega : 	0.0999985 : d : 	(0.298487 -0.0799795 -0.951057)
	I52 : dAve : 	(0.0279626 -0.0279626 -0.0904495) : omega : 	0.0999985 : d : 	(0.218508 -0.218508 -0.951057)
	I53 : dAve : 	(0.010235 -0.0381976 -0.0904495) : omega : 	0.0999985 : d : 	(0.0799795 -0.298487 -0.951057)
	I54 : dAve : 	(-0.010235 -0.0381976 -0.0904495) : omega : 	0.0999985 : d : 	(-0.0799795 -0.298487 -0.951057)
	I55 : dAve : 	(-0.0279626 -0.0279626 -0.0904495) : omega : 	0.0999985 : d : 	(-0.218508 -0.218508 -0.951057)
	I56 : dAve : 	(-0.0381976 -0.010235 -0.0904495) : omega : 	0.0999985 : d : 	(-0.298487 -0.0799795 -0.951057)
	I57 : dAve : 	(-0.0381976 0.010235 -0.0904495) : omega : 	0.0999985 : d : 	(-0.298487 0.0799795 -0.951057)
	I58 : dAve : 	(-0.0279626 0.0279626 -0.0904495) : omega : 	0.0999985 : d : 	(-0.218508 0.218508 -0.951057)
	I59 : dAve : 	(-0.010235 0.0381976 -0.0904495) : omega : 	0.0999985 : d : 	(-0.0799795 0.298487 -0.951057)
Total omega : 12.5664

No finite volume options present
Courant Number mean: 0 max: 0

Starting time loop

Selecting ODE solver rodas23
Courant Number mean: 0 max: 0
Time = 0.1

diagonal:  Solving for rho, Initial residual = 0, Final residual = 0, No Iterations 0
PIMPLE: iteration 1
Radiation solver iter: 0
Selecting boundary radiation Model: lookup
GAMG:  Solving for ILambda_0_0, Initial residual = 1, Final residual = 1.43129e-15, No Iterations 1
GAMG:  Solving for ILambda_1_0, Initial residual = 1, Final residual = 1.41844e-15, No Iterations 1
GAMG:  Solving for ILambda_2_0, Initial residual = 1, Final residual = 1.45959e-15, No Iterations 1
GAMG:  Solving for ILambda_3_0, Initial residual = 1, Final residual = 6.12406e-05, No Iterations 1
GAMG:  Solving for ILambda_4_0, Initial residual = 1, Final residual = 8.14164e-06, No Iterations 2
GAMG:  Solving for ILambda_5_0, Initial residual = 1, Final residual = 1.10908e-05, No Iterations 2
GAMG:  Solving for ILambda_6_0, Initial residual = 1, Final residual = 1.19834e-05, No Iterations 2
GAMG:  Solving for ILambda_7_0, Initial residual = 1, Final residual = 1.33308e-05, No Iterations 2
GAMG:  Solving for ILambda_8_0, Initial residual = 1, Final residual = 1.07806e-05, No Iterations 2
GAMG:  Solving for ILambda_9_0, Initial residual = 1, Final residual = 8.37179e-06, No Iterations 2
GAMG:  Solving for ILambda_10_0, Initial residual = 1, Final residual = 5.2522e-06, No Iterations 2
GAMG:  Solving for ILambda_11_0, Initial residual = 1, Final residual = 5.3854e-05, No Iterations 1
GAMG:  Solving for ILambda_12_0, Initial residual = 1, Final residual = 1.29855e-15, No Iterations 1
GAMG:  Solving for ILambda_13_0, Initial residual = 1, Final residual = 1.19539e-15, No Iterations 1
GAMG:  Solving for ILambda_14_0, Initial residual = 1, Final residual = 1.33549e-15, No Iterations 1
GAMG:  Solving for ILambda_15_0, Initial residual = 1, Final residual = 3.60814e-06, No Iterations 2
GAMG:  Solving for ILambda_16_0, Initial residual = 1, Final residual = 1.93728e-05, No Iterations 2
GAMG:  Solving for ILambda_17_0, Initial residual = 1, Final residual = 2.28421e-05, No Iterations 2
GAMG:  Solving for ILambda_18_0, Initial residual = 1, Final residual = 4.03783e-05, No Iterations 2
GAMG:  Solving for ILambda_19_0, Initial residual = 1, Final residual = 4.99016e-05, No Iterations 2
GAMG:  Solving for ILambda_20_0, Initial residual = 1, Final residual = 4.07741e-05, No Iterations 2
GAMG:  Solving for ILambda_21_0, Initial residual = 1, Final residual = 2.10945e-05, No Iterations 2
GAMG:  Solving for ILambda_22_0, Initial residual = 1, Final residual = 1.43044e-05, No Iterations 2
GAMG:  Solving for ILambda_23_0, Initial residual = 1, Final residual = 9.00479e-05, No Iterations 1
GAMG:  Solving for ILambda_24_0, Initial residual = 1, Final residual = 1.01408e-15, No Iterations 1
GAMG:  Solving for ILambda_25_0, Initial residual = 1, Final residual = 1.24725e-15, No Iterations 1
GAMG:  Solving for ILambda_26_0, Initial residual = 1, Final residual = 1.44061e-15, No Iterations 1
GAMG:  Solving for ILambda_27_0, Initial residual = 1, Final residual = 8.08853e-05, No Iterations 1
GAMG:  Solving for ILambda_28_0, Initial residual = 1, Final residual = 8.41084e-06, No Iterations 2
GAMG:  Solving for ILambda_29_0, Initial residual = 1, Final residual = 1.86582e-06, No Iterations 2
GAMG:  Solving for ILambda_30_0, Initial residual = 1, Final residual = 1.42172e-15, No Iterations 1
GAMG:  Solving for ILambda_31_0, Initial residual = 1, Final residual = 1.26744e-15, No Iterations 1
GAMG:  Solving for ILambda_32_0, Initial residual = 1, Final residual = 1.02498e-15, No Iterations 1
GAMG:  Solving for ILambda_33_0, Initial residual = 1, Final residual = 8.08853e-05, No Iterations 1
GAMG:  Solving for ILambda_34_0, Initial residual = 1, Final residual = 8.41084e-06, No Iterations 2
GAMG:  Solving for ILambda_35_0, Initial residual = 1, Final residual = 1.86582e-06, No Iterations 2
GAMG:  Solving for ILambda_36_0, Initial residual = 1, Final residual = 4.03783e-05, No Iterations 2
GAMG:  Solving for ILambda_37_0, Initial residual = 1, Final residual = 4.99016e-05, No Iterations 2
GAMG:  Solving for ILambda_38_0, Initial residual = 1, Final residual = 4.07741e-05, No Iterations 2
GAMG:  Solving for ILambda_39_0, Initial residual = 1, Final residual = 2.10945e-05, No Iterations 2
GAMG:  Solving for ILambda_40_0, Initial residual = 1, Final residual = 1.43044e-05, No Iterations 2
GAMG:  Solving for ILambda_41_0, Initial residual = 1, Final residual = 9.00479e-05, No Iterations 1
GAMG:  Solving for ILambda_42_0, Initial residual = 1, Final residual = 1.21215e-15, No Iterations 1
GAMG:  Solving for ILambda_43_0, Initial residual = 1, Final residual = 1.19947e-15, No Iterations 1
GAMG:  Solving for ILambda_44_0, Initial residual = 1, Final residual = 1.12743e-15, No Iterations 1
GAMG:  Solving for ILambda_45_0, Initial residual = 1, Final residual = 3.60814e-06, No Iterations 2
GAMG:  Solving for ILambda_46_0, Initial residual = 1, Final residual = 1.93728e-05, No Iterations 2
GAMG:  Solving for ILambda_47_0, Initial residual = 1, Final residual = 2.28421e-05, No Iterations 2
GAMG:  Solving for ILambda_48_0, Initial residual = 1, Final residual = 1.19834e-05, No Iterations 2
GAMG:  Solving for ILambda_49_0, Initial residual = 1, Final residual = 1.33308e-05, No Iterations 2
GAMG:  Solving for ILambda_50_0, Initial residual = 1, Final residual = 1.07806e-05, No Iterations 2
GAMG:  Solving for ILambda_51_0, Initial residual = 1, Final residual = 8.37179e-06, No Iterations 2
GAMG:  Solving for ILambda_52_0, Initial residual = 1, Final residual = 5.2522e-06, No Iterations 2
GAMG:  Solving for ILambda_53_0, Initial residual = 1, Final residual = 5.3854e-05, No Iterations 1
GAMG:  Solving for ILambda_54_0, Initial residual = 1, Final residual = 1.51345e-15, No Iterations 1
GAMG:  Solving for ILambda_55_0, Initial residual = 1, Final residual = 1.43757e-15, No Iterations 1
GAMG:  Solving for ILambda_56_0, Initial residual = 1, Final residual = 1.51056e-15, No Iterations 1
GAMG:  Solving for ILambda_57_0, Initial residual = 1, Final residual = 6.12406e-05, No Iterations 1
GAMG:  Solving for ILambda_58_0, Initial residual = 1, Final residual = 8.14164e-06, No Iterations 2
GAMG:  Solving for ILambda_59_0, Initial residual = 1, Final residual = 1.10908e-05, No Iterations 2
Radiation solver iter: 1
GAMG:  Solving for ILambda_0_0, Initial residual = 0.0554339, Final residual = 7.02361e-14, No Iterations 1
GAMG:  Solving for ILambda_1_0, Initial residual = 0.059445, Final residual = 7.13241e-14, No Iterations 1
GAMG:  Solving for ILambda_2_0, Initial residual = 0.0554339, Final residual = 7.08925e-14, No Iterations 1
GAMG:  Solving for ILambda_3_0, Initial residual = 0.0555638, Final residual = 1.09426e-05, No Iterations 2
GAMG:  Solving for ILambda_4_0, Initial residual = 0.0594245, Final residual = 5.96445e-06, No Iterations 3
GAMG:  Solving for ILambda_5_0, Initial residual = 0.0554109, Final residual = 7.53372e-06, No Iterations 3
GAMG:  Solving for ILambda_6_0, Initial residual = 0.0554024, Final residual = 7.63826e-06, No Iterations 3
GAMG:  Solving for ILambda_7_0, Initial residual = 0.0593998, Final residual = 9.02999e-06, No Iterations 3
GAMG:  Solving for ILambda_8_0, Initial residual = 0.0553139, Final residual = 5.99421e-06, No Iterations 3
GAMG:  Solving for ILambda_9_0, Initial residual = 0.0553383, Final residual = 4.95555e-06, No Iterations 3
GAMG:  Solving for ILambda_10_0, Initial residual = 0.0594079, Final residual = 5.87104e-05, No Iterations 2
GAMG:  Solving for ILambda_11_0, Initial residual = 0.0555335, Final residual = 5.64745e-06, No Iterations 2
GAMG:  Solving for ILambda_12_0, Initial residual = 0.0587302, Final residual = 6.86138e-14, No Iterations 1
GAMG:  Solving for ILambda_13_0, Initial residual = 0.0603635, Final residual = 6.79062e-14, No Iterations 1
GAMG:  Solving for ILambda_14_0, Initial residual = 0.0587302, Final residual = 6.7284e-14, No Iterations 1
GAMG:  Solving for ILambda_15_0, Initial residual = 0.0587206, Final residual = 2.48562e-06, No Iterations 3
GAMG:  Solving for ILambda_16_0, Initial residual = 0.0603639, Final residual = 5.2768e-05, No Iterations 3
GAMG:  Solving for ILambda_17_0, Initial residual = 0.0588051, Final residual = 6.04468e-05, No Iterations 3
GAMG:  Solving for ILambda_18_0, Initial residual = 0.0590977, Final residual = 1.1903e-05, No Iterations 4
GAMG:  Solving for ILambda_19_0, Initial residual = 0.06104, Final residual = 2.24104e-05, No Iterations 4
GAMG:  Solving for ILambda_20_0, Initial residual = 0.0590841, Final residual = 1.05234e-05, No Iterations 4
GAMG:  Solving for ILambda_21_0, Initial residual = 0.0587768, Final residual = 5.90813e-05, No Iterations 3
GAMG:  Solving for ILambda_22_0, Initial residual = 0.0603366, Final residual = 3.38138e-05, No Iterations 3
GAMG:  Solving for ILambda_23_0, Initial residual = 0.0597432, Final residual = 5.93532e-05, No Iterations 2
GAMG:  Solving for ILambda_24_0, Initial residual = 0.0434576, Final residual = 5.07138e-14, No Iterations 1
GAMG:  Solving for ILambda_25_0, Initial residual = 0.0443844, Final residual = 6.43684e-14, No Iterations 1
GAMG:  Solving for ILambda_26_0, Initial residual = 0.0434576, Final residual = 5.43247e-14, No Iterations 1
GAMG:  Solving for ILambda_27_0, Initial residual = 0.043973, Final residual = 5.67697e-05, No Iterations 2
GAMG:  Solving for ILambda_28_0, Initial residual = 0.0444381, Final residual = 7.01357e-06, No Iterations 3
GAMG:  Solving for ILambda_29_0, Initial residual = 0.0435394, Final residual = 8.54428e-06, No Iterations 2
GAMG:  Solving for ILambda_30_0, Initial residual = 0.0434576, Final residual = 5.39274e-14, No Iterations 1
GAMG:  Solving for ILambda_31_0, Initial residual = 0.0443844, Final residual = 6.37636e-14, No Iterations 1
GAMG:  Solving for ILambda_32_0, Initial residual = 0.0434576, Final residual = 5.22487e-14, No Iterations 1
GAMG:  Solving for ILambda_33_0, Initial residual = 0.043973, Final residual = 5.67697e-05, No Iterations 2
GAMG:  Solving for ILambda_34_0, Initial residual = 0.0444381, Final residual = 7.01357e-06, No Iterations 3
GAMG:  Solving for ILambda_35_0, Initial residual = 0.0435394, Final residual = 8.54428e-06, No Iterations 2
GAMG:  Solving for ILambda_36_0, Initial residual = 0.0590977, Final residual = 1.1903e-05, No Iterations 4
GAMG:  Solving for ILambda_37_0, Initial residual = 0.06104, Final residual = 2.24104e-05, No Iterations 4
GAMG:  Solving for ILambda_38_0, Initial residual = 0.0590841, Final residual = 1.05234e-05, No Iterations 4
GAMG:  Solving for ILambda_39_0, Initial residual = 0.0587768, Final residual = 5.90813e-05, No Iterations 3
GAMG:  Solving for ILambda_40_0, Initial residual = 0.0603366, Final residual = 3.38138e-05, No Iterations 3
GAMG:  Solving for ILambda_41_0, Initial residual = 0.0597432, Final residual = 5.93532e-05, No Iterations 2
GAMG:  Solving for ILambda_42_0, Initial residual = 0.0587302, Final residual = 6.65842e-14, No Iterations 1
GAMG:  Solving for ILambda_43_0, Initial residual = 0.0603635, Final residual = 6.9804e-14, No Iterations 1
GAMG:  Solving for ILambda_44_0, Initial residual = 0.0587302, Final residual = 5.6007e-14, No Iterations 1
GAMG:  Solving for ILambda_45_0, Initial residual = 0.0587206, Final residual = 2.48562e-06, No Iterations 3
GAMG:  Solving for ILambda_46_0, Initial residual = 0.0603639, Final residual = 5.2768e-05, No Iterations 3
GAMG:  Solving for ILambda_47_0, Initial residual = 0.0588051, Final residual = 6.04468e-05, No Iterations 3
GAMG:  Solving for ILambda_48_0, Initial residual = 0.0554024, Final residual = 7.63826e-06, No Iterations 3
GAMG:  Solving for ILambda_49_0, Initial residual = 0.0593998, Final residual = 9.02999e-06, No Iterations 3
GAMG:  Solving for ILambda_50_0, Initial residual = 0.0553139, Final residual = 5.99421e-06, No Iterations 3
GAMG:  Solving for ILambda_51_0, Initial residual = 0.0553383, Final residual = 4.95555e-06, No Iterations 3
GAMG:  Solving for ILambda_52_0, Initial residual = 0.0594079, Final residual = 5.87104e-05, No Iterations 2
GAMG:  Solving for ILambda_53_0, Initial residual = 0.0555335, Final residual = 5.64745e-06, No Iterations 2
GAMG:  Solving for ILambda_54_0, Initial residual = 0.0554339, Final residual = 7.05779e-14, No Iterations 1
GAMG:  Solving for ILambda_55_0, Initial residual = 0.059445, Final residual = 7.18277e-14, No Iterations 1
GAMG:  Solving for ILambda_56_0, Initial residual = 0.0554339, Final residual = 7.16377e-14, No Iterations 1
GAMG:  Solving for ILambda_57_0, Initial residual = 0.0555638, Final residual = 1.09426e-05, No Iterations 2
GAMG:  Solving for ILambda_58_0, Initial residual = 0.0594245, Final residual = 5.96445e-06, No Iterations 3
GAMG:  Solving for ILambda_59_0, Initial residual = 0.0554109, Final residual = 7.53372e-06, No Iterations 3
Radiation solver iter: 2
GAMG:  Solving for ILambda_0_0, Initial residual = 0.0278028, Final residual = 6.71743e-14, No Iterations 1
GAMG:  Solving for ILambda_1_0, Initial residual = 0.0302937, Final residual = 6.96864e-14, No Iterations 1
GAMG:  Solving for ILambda_2_0, Initial residual = 0.0278028, Final residual = 6.8171e-14, No Iterations 1
GAMG:  Solving for ILambda_3_0, Initial residual = 0.0280105, Final residual = 5.85789e-06, No Iterations 2
GAMG:  Solving for ILambda_4_0, Initial residual = 0.0302798, Final residual = 8.55168e-05, No Iterations 2
GAMG:  Solving for ILambda_5_0, Initial residual = 0.0278132, Final residual = 5.34138e-06, No Iterations 3
GAMG:  Solving for ILambda_6_0, Initial residual = 0.0278285, Final residual = 6.17621e-06, No Iterations 3
GAMG:  Solving for ILambda_7_0, Initial residual = 0.030319, Final residual = 7.01802e-06, No Iterations 3
GAMG:  Solving for ILambda_8_0, Initial residual = 0.0278066, Final residual = 5.38689e-06, No Iterations 3
GAMG:  Solving for ILambda_9_0, Initial residual = 0.0277917, Final residual = 8.30072e-05, No Iterations 2
GAMG:  Solving for ILambda_10_0, Initial residual = 0.0302979, Final residual = 5.02534e-05, No Iterations 2
GAMG:  Solving for ILambda_11_0, Initial residual = 0.0280406, Final residual = 4.75026e-06, No Iterations 2
GAMG:  Solving for ILambda_12_0, Initial residual = 0.0301016, Final residual = 6.65054e-14, No Iterations 1
GAMG:  Solving for ILambda_13_0, Initial residual = 0.0315723, Final residual = 6.52146e-14, No Iterations 1
GAMG:  Solving for ILambda_14_0, Initial residual = 0.0301016, Final residual = 6.4187e-14, No Iterations 1
GAMG:  Solving for ILambda_15_0, Initial residual = 0.030094, Final residual = 3.83116e-05, No Iterations 2
GAMG:  Solving for ILambda_16_0, Initial residual = 0.0315546, Final residual = 3.1465e-05, No Iterations 3
GAMG:  Solving for ILambda_17_0, Initial residual = 0.030174, Final residual = 3.3175e-05, No Iterations 3
GAMG:  Solving for ILambda_18_0, Initial residual = 0.0302216, Final residual = 4.51828e-05, No Iterations 3
GAMG:  Solving for ILambda_19_0, Initial residual = 0.0317301, Final residual = 7.05297e-05, No Iterations 3
GAMG:  Solving for ILambda_20_0, Initial residual = 0.0301991, Final residual = 4.26329e-05, No Iterations 3
GAMG:  Solving for ILambda_21_0, Initial residual = 0.0301474, Final residual = 3.10399e-05, No Iterations 3
GAMG:  Solving for ILambda_22_0, Initial residual = 0.031577, Final residual = 1.83207e-05, No Iterations 3
GAMG:  Solving for ILambda_23_0, Initial residual = 0.0310343, Final residual = 2.6136e-05, No Iterations 2
GAMG:  Solving for ILambda_24_0, Initial residual = 0.0244189, Final residual = 5.11745e-14, No Iterations 1
GAMG:  Solving for ILambda_25_0, Initial residual = 0.0254954, Final residual = 6.36814e-14, No Iterations 1
GAMG:  Solving for ILambda_26_0, Initial residual = 0.0244189, Final residual = 5.16839e-14, No Iterations 1
GAMG:  Solving for ILambda_27_0, Initial residual = 0.0245532, Final residual = 1.90147e-05, No Iterations 2
GAMG:  Solving for ILambda_28_0, Initial residual = 0.0254777, Final residual = 3.80611e-06, No Iterations 3
GAMG:  Solving for ILambda_29_0, Initial residual = 0.0244133, Final residual = 1.04098e-05, No Iterations 2
GAMG:  Solving for ILambda_30_0, Initial residual = 0.0244189, Final residual = 5.27974e-14, No Iterations 1
GAMG:  Solving for ILambda_31_0, Initial residual = 0.0254954, Final residual = 6.21412e-14, No Iterations 1
GAMG:  Solving for ILambda_32_0, Initial residual = 0.0244189, Final residual = 5.08755e-14, No Iterations 1
GAMG:  Solving for ILambda_33_0, Initial residual = 0.0245532, Final residual = 1.90147e-05, No Iterations 2
GAMG:  Solving for ILambda_34_0, Initial residual = 0.0254777, Final residual = 3.80611e-06, No Iterations 3
GAMG:  Solving for ILambda_35_0, Initial residual = 0.0244133, Final residual = 1.04098e-05, No Iterations 2
GAMG:  Solving for ILambda_36_0, Initial residual = 0.0302216, Final residual = 4.51828e-05, No Iterations 3
GAMG:  Solving for ILambda_37_0, Initial residual = 0.0317301, Final residual = 7.05297e-05, No Iterations 3
GAMG:  Solving for ILambda_38_0, Initial residual = 0.0301991, Final residual = 4.26329e-05, No Iterations 3
GAMG:  Solving for ILambda_39_0, Initial residual = 0.0301474, Final residual = 3.10399e-05, No Iterations 3
GAMG:  Solving for ILambda_40_0, Initial residual = 0.031577, Final residual = 1.83207e-05, No Iterations 3
GAMG:  Solving for ILambda_41_0, Initial residual = 0.0310343, Final residual = 2.6136e-05, No Iterations 2
GAMG:  Solving for ILambda_42_0, Initial residual = 0.0301016, Final residual = 6.43819e-14, No Iterations 1
GAMG:  Solving for ILambda_43_0, Initial residual = 0.0315723, Final residual = 6.71629e-14, No Iterations 1
GAMG:  Solving for ILambda_44_0, Initial residual = 0.0301016, Final residual = 5.32205e-14, No Iterations 1
GAMG:  Solving for ILambda_45_0, Initial residual = 0.030094, Final residual = 3.83116e-05, No Iterations 2
GAMG:  Solving for ILambda_46_0, Initial residual = 0.0315546, Final residual = 3.1465e-05, No Iterations 3
GAMG:  Solving for ILambda_47_0, Initial residual = 0.030174, Final residual = 3.3175e-05, No Iterations 3
GAMG:  Solving for ILambda_48_0, Initial residual = 0.0278285, Final residual = 6.17621e-06, No Iterations 3
GAMG:  Solving for ILambda_49_0, Initial residual = 0.030319, Final residual = 7.01802e-06, No Iterations 3
GAMG:  Solving for ILambda_50_0, Initial residual = 0.0278066, Final residual = 5.38689e-06, No Iterations 3
GAMG:  Solving for ILambda_51_0, Initial residual = 0.0277917, Final residual = 8.30072e-05, No Iterations 2
GAMG:  Solving for ILambda_52_0, Initial residual = 0.0302979, Final residual = 5.02534e-05, No Iterations 2
GAMG:  Solving for ILambda_53_0, Initial residual = 0.0280406, Final residual = 4.75026e-06, No Iterations 2
GAMG:  Solving for ILambda_54_0, Initial residual = 0.0278028, Final residual = 7.02969e-14, No Iterations 1
GAMG:  Solving for ILambda_55_0, Initial residual = 0.0302937, Final residual = 6.89614e-14, No Iterations 1
GAMG:  Solving for ILambda_56_0, Initial residual = 0.0278028, Final residual = 6.95275e-14, No Iterations 1
GAMG:  Solving for ILambda_57_0, Initial residual = 0.0280105, Final residual = 5.85789e-06, No Iterations 2
GAMG:  Solving for ILambda_58_0, Initial residual = 0.0302798, Final residual = 8.55168e-05, No Iterations 2
GAMG:  Solving for ILambda_59_0, Initial residual = 0.0278132, Final residual = 5.34138e-06, No Iterations 3
Radiation solver iter: 3
GAMG:  Solving for ILambda_0_0, Initial residual = 0.0100081, Final residual = 6.87623e-14, No Iterations 1
GAMG:  Solving for ILambda_1_0, Initial residual = 0.0104175, Final residual = 6.94401e-14, No Iterations 1
GAMG:  Solving for ILambda_2_0, Initial residual = 0.0100081, Final residual = 6.99129e-14, No Iterations 1
GAMG:  Solving for ILambda_3_0, Initial residual = 0.0100919, Final residual = 1.63797e-06, No Iterations 2
GAMG:  Solving for ILambda_4_0, Initial residual = 0.0104102, Final residual = 2.17383e-05, No Iterations 2
GAMG:  Solving for ILambda_5_0, Initial residual = 0.010009, Final residual = 3.22191e-05, No Iterations 2
GAMG:  Solving for ILambda_6_0, Initial residual = 0.0100157, Final residual = 3.84416e-05, No Iterations 2
GAMG:  Solving for ILambda_7_0, Initial residual = 0.0104198, Final residual = 4.25647e-05, No Iterations 2
GAMG:  Solving for ILambda_8_0, Initial residual = 0.0100079, Final residual = 3.61017e-05, No Iterations 2
GAMG:  Solving for ILambda_9_0, Initial residual = 0.0100263, Final residual = 2.63633e-05, No Iterations 2
GAMG:  Solving for ILambda_10_0, Initial residual = 0.0104236, Final residual = 1.52857e-05, No Iterations 2
GAMG:  Solving for ILambda_11_0, Initial residual = 0.0101057, Final residual = 1.44826e-06, No Iterations 2
GAMG:  Solving for ILambda_12_0, Initial residual = 0.0113918, Final residual = 6.83669e-14, No Iterations 1
GAMG:  Solving for ILambda_13_0, Initial residual = 0.0122918, Final residual = 6.69543e-14, No Iterations 1
GAMG:  Solving for ILambda_14_0, Initial residual = 0.0113918, Final residual = 6.7894e-14, No Iterations 1
GAMG:  Solving for ILambda_15_0, Initial residual = 0.0113801, Final residual = 8.89425e-06, No Iterations 2
GAMG:  Solving for ILambda_16_0, Initial residual = 0.0122682, Final residual = 7.44801e-05, No Iterations 2
GAMG:  Solving for ILambda_17_0, Initial residual = 0.0113875, Final residual = 8.9373e-05, No Iterations 2
GAMG:  Solving for ILambda_18_0, Initial residual = 0.0114415, Final residual = 1.34431e-05, No Iterations 3
GAMG:  Solving for ILambda_19_0, Initial residual = 0.0123541, Final residual = 1.96201e-05, No Iterations 3
GAMG:  Solving for ILambda_20_0, Initial residual = 0.0114334, Final residual = 1.26596e-05, No Iterations 3
GAMG:  Solving for ILambda_21_0, Initial residual = 0.0113783, Final residual = 7.32749e-05, No Iterations 2
GAMG:  Solving for ILambda_22_0, Initial residual = 0.0122726, Final residual = 5.31834e-05, No Iterations 2
GAMG:  Solving for ILambda_23_0, Initial residual = 0.0118329, Final residual = 7.48696e-06, No Iterations 2
GAMG:  Solving for ILambda_24_0, Initial residual = 0.00861482, Final residual = 5.19722e-14, No Iterations 1
GAMG:  Solving for ILambda_25_0, Initial residual = 0.0109216, Final residual = 6.4205e-14, No Iterations 1
GAMG:  Solving for ILambda_26_0, Initial residual = 0.00861482, Final residual = 5.3133e-14, No Iterations 1
GAMG:  Solving for ILambda_27_0, Initial residual = 0.00857596, Final residual = 3.62154e-06, No Iterations 2
GAMG:  Solving for ILambda_28_0, Initial residual = 0.0109138, Final residual = 2.67339e-05, No Iterations 2
GAMG:  Solving for ILambda_29_0, Initial residual = 0.00861228, Final residual = 3.90022e-06, No Iterations 2
GAMG:  Solving for ILambda_30_0, Initial residual = 0.00861482, Final residual = 5.2423e-14, No Iterations 1
GAMG:  Solving for ILambda_31_0, Initial residual = 0.0109216, Final residual = 6.35419e-14, No Iterations 1
GAMG:  Solving for ILambda_32_0, Initial residual = 0.00861482, Final residual = 5.27685e-14, No Iterations 1
GAMG:  Solving for ILambda_33_0, Initial residual = 0.00857596, Final residual = 3.62154e-06, No Iterations 2
GAMG:  Solving for ILambda_34_0, Initial residual = 0.0109138, Final residual = 2.67339e-05, No Iterations 2
GAMG:  Solving for ILambda_35_0, Initial residual = 0.00861228, Final residual = 3.90022e-06, No Iterations 2
GAMG:  Solving for ILambda_36_0, Initial residual = 0.0114415, Final residual = 1.34431e-05, No Iterations 3
GAMG:  Solving for ILambda_37_0, Initial residual = 0.0123541, Final residual = 1.96201e-05, No Iterations 3
GAMG:  Solving for ILambda_38_0, Initial residual = 0.0114334, Final residual = 1.26596e-05, No Iterations 3
GAMG:  Solving for ILambda_39_0, Initial residual = 0.0113783, Final residual = 7.32749e-05, No Iterations 2
GAMG:  Solving for ILambda_40_0, Initial residual = 0.0122726, Final residual = 5.31834e-05, No Iterations 2
GAMG:  Solving for ILambda_41_0, Initial residual = 0.0118329, Final residual = 7.48696e-06, No Iterations 2
GAMG:  Solving for ILambda_42_0, Initial residual = 0.0113918, Final residual = 6.50166e-14, No Iterations 1
GAMG:  Solving for ILambda_43_0, Initial residual = 0.0122918, Final residual = 6.66263e-14, No Iterations 1
GAMG:  Solving for ILambda_44_0, Initial residual = 0.0113918, Final residual = 5.53124e-14, No Iterations 1
GAMG:  Solving for ILambda_45_0, Initial residual = 0.0113801, Final residual = 8.89425e-06, No Iterations 2
GAMG:  Solving for ILambda_46_0, Initial residual = 0.0122682, Final residual = 7.44801e-05, No Iterations 2
GAMG:  Solving for ILambda_47_0, Initial residual = 0.0113875, Final residual = 8.9373e-05, No Iterations 2
GAMG:  Solving for ILambda_48_0, Initial residual = 0.0100157, Final residual = 3.84416e-05, No Iterations 2
GAMG:  Solving for ILambda_49_0, Initial residual = 0.0104198, Final residual = 4.25647e-05, No Iterations 2
GAMG:  Solving for ILambda_50_0, Initial residual = 0.0100079, Final residual = 3.61017e-05, No Iterations 2
GAMG:  Solving for ILambda_51_0, Initial residual = 0.0100263, Final residual = 2.63633e-05, No Iterations 2
GAMG:  Solving for ILambda_52_0, Initial residual = 0.0104236, Final residual = 1.52857e-05, No Iterations 2
GAMG:  Solving for ILambda_53_0, Initial residual = 0.0101057, Final residual = 1.44826e-06, No Iterations 2
GAMG:  Solving for ILambda_54_0, Initial residual = 0.0100081, Final residual = 7.08757e-14, No Iterations 1
GAMG:  Solving for ILambda_55_0, Initial residual = 0.0104175, Final residual = 6.96878e-14, No Iterations 1
GAMG:  Solving for ILambda_56_0, Initial residual = 0.0100081, Final residual = 7.07539e-14, No Iterations 1
GAMG:  Solving for ILambda_57_0, Initial residual = 0.0100919, Final residual = 1.63797e-06, No Iterations 2
GAMG:  Solving for ILambda_58_0, Initial residual = 0.0104102, Final residual = 2.17383e-05, No Iterations 2
GAMG:  Solving for ILambda_59_0, Initial residual = 0.010009, Final residual = 3.22191e-05, No Iterations 2
Radiation solver iter: 4
GAMG:  Solving for ILambda_0_0, Initial residual = 0.00358822, Final residual = 6.85466e-14, No Iterations 1
GAMG:  Solving for ILambda_1_0, Initial residual = 0.00374872, Final residual = 7.00881e-14, No Iterations 1
GAMG:  Solving for ILambda_2_0, Initial residual = 0.00358822, Final residual = 6.95361e-14, No Iterations 1
GAMG:  Solving for ILambda_3_0, Initial residual = 0.00360476, Final residual = 2.34658e-05, No Iterations 1
GAMG:  Solving for ILambda_4_0, Initial residual = 0.00374713, Final residual = 3.91471e-06, No Iterations 2
GAMG:  Solving for ILambda_5_0, Initial residual = 0.00359542, Final residual = 6.70568e-06, No Iterations 2
GAMG:  Solving for ILambda_6_0, Initial residual = 0.00360302, Final residual = 7.90015e-06, No Iterations 2
GAMG:  Solving for ILambda_7_0, Initial residual = 0.00376026, Final residual = 8.56734e-06, No Iterations 2
GAMG:  Solving for ILambda_8_0, Initial residual = 0.00359873, Final residual = 7.09764e-06, No Iterations 2
GAMG:  Solving for ILambda_9_0, Initial residual = 0.00359703, Final residual = 5.30272e-06, No Iterations 2
GAMG:  Solving for ILambda_10_0, Initial residual = 0.00374907, Final residual = 9.61436e-05, No Iterations 1
GAMG:  Solving for ILambda_11_0, Initial residual = 0.00360667, Final residual = 2.35891e-05, No Iterations 1
GAMG:  Solving for ILambda_12_0, Initial residual = 0.00447326, Final residual = 6.72457e-14, No Iterations 1
GAMG:  Solving for ILambda_13_0, Initial residual = 0.00515831, Final residual = 6.68492e-14, No Iterations 1
GAMG:  Solving for ILambda_14_0, Initial residual = 0.00447326, Final residual = 6.6005e-14, No Iterations 1
GAMG:  Solving for ILambda_15_0, Initial residual = 0.00446984, Final residual = 2.45581e-06, No Iterations 2
GAMG:  Solving for ILambda_16_0, Initial residual = 0.00516212, Final residual = 3.95187e-05, No Iterations 2
GAMG:  Solving for ILambda_17_0, Initial residual = 0.00450355, Final residual = 4.05347e-05, No Iterations 2
GAMG:  Solving for ILambda_18_0, Initial residual = 0.00448926, Final residual = 4.16602e-05, No Iterations 2
GAMG:  Solving for ILambda_19_0, Initial residual = 0.00517359, Final residual = 5.76349e-05, No Iterations 2
GAMG:  Solving for ILambda_20_0, Initial residual = 0.0044855, Final residual = 3.91559e-05, No Iterations 2
GAMG:  Solving for ILambda_21_0, Initial residual = 0.00449362, Final residual = 3.74584e-05, No Iterations 2
GAMG:  Solving for ILambda_22_0, Initial residual = 0.0051685, Final residual = 2.51444e-05, No Iterations 2
GAMG:  Solving for ILambda_23_0, Initial residual = 0.00457736, Final residual = 2.18903e-06, No Iterations 2
GAMG:  Solving for ILambda_24_0, Initial residual = 0.00271835, Final residual = 5.20656e-14, No Iterations 1
GAMG:  Solving for ILambda_25_0, Initial residual = 0.00438625, Final residual = 6.30356e-14, No Iterations 1
GAMG:  Solving for ILambda_26_0, Initial residual = 0.00271835, Final residual = 5.27703e-14, No Iterations 1
GAMG:  Solving for ILambda_27_0, Initial residual = 0.00268958, Final residual = 3.35895e-05, No Iterations 1
GAMG:  Solving for ILambda_28_0, Initial residual = 0.00439287, Final residual = 8.23857e-06, No Iterations 2
GAMG:  Solving for ILambda_29_0, Initial residual = 0.00271713, Final residual = 3.54265e-05, No Iterations 1
GAMG:  Solving for ILambda_30_0, Initial residual = 0.00271835, Final residual = 5.36975e-14, No Iterations 1
GAMG:  Solving for ILambda_31_0, Initial residual = 0.00438625, Final residual = 6.54048e-14, No Iterations 1
GAMG:  Solving for ILambda_32_0, Initial residual = 0.00271835, Final residual = 5.15528e-14, No Iterations 1
GAMG:  Solving for ILambda_33_0, Initial residual = 0.00268958, Final residual = 3.35895e-05, No Iterations 1
GAMG:  Solving for ILambda_34_0, Initial residual = 0.00439287, Final residual = 8.23857e-06, No Iterations 2
GAMG:  Solving for ILambda_35_0, Initial residual = 0.00271713, Final residual = 3.54265e-05, No Iterations 1
GAMG:  Solving for ILambda_36_0, Initial residual = 0.00448926, Final residual = 4.16602e-05, No Iterations 2
GAMG:  Solving for ILambda_37_0, Initial residual = 0.00517359, Final residual = 5.76349e-05, No Iterations 2
GAMG:  Solving for ILambda_38_0, Initial residual = 0.0044855, Final residual = 3.91559e-05, No Iterations 2
GAMG:  Solving for ILambda_39_0, Initial residual = 0.00449362, Final residual = 3.74584e-05, No Iterations 2
GAMG:  Solving for ILambda_40_0, Initial residual = 0.0051685, Final residual = 2.51444e-05, No Iterations 2
GAMG:  Solving for ILambda_41_0, Initial residual = 0.00457736, Final residual = 2.18903e-06, No Iterations 2
GAMG:  Solving for ILambda_42_0, Initial residual = 0.00447326, Final residual = 6.52325e-14, No Iterations 1
GAMG:  Solving for ILambda_43_0, Initial residual = 0.00515831, Final residual = 6.63785e-14, No Iterations 1
GAMG:  Solving for ILambda_44_0, Initial residual = 0.00447326, Final residual = 5.44895e-14, No Iterations 1
GAMG:  Solving for ILambda_45_0, Initial residual = 0.00446984, Final residual = 2.45581e-06, No Iterations 2
GAMG:  Solving for ILambda_46_0, Initial residual = 0.00516212, Final residual = 3.95187e-05, No Iterations 2
GAMG:  Solving for ILambda_47_0, Initial residual = 0.00450355, Final residual = 4.05347e-05, No Iterations 2
GAMG:  Solving for ILambda_48_0, Initial residual = 0.00360302, Final residual = 7.90015e-06, No Iterations 2
GAMG:  Solving for ILambda_49_0, Initial residual = 0.00376026, Final residual = 8.56734e-06, No Iterations 2
GAMG:  Solving for ILambda_50_0, Initial residual = 0.00359873, Final residual = 7.09764e-06, No Iterations 2
GAMG:  Solving for ILambda_51_0, Initial residual = 0.00359703, Final residual = 5.30272e-06, No Iterations 2
GAMG:  Solving for ILambda_52_0, Initial residual = 0.00374907, Final residual = 9.61436e-05, No Iterations 1
GAMG:  Solving for ILambda_53_0, Initial residual = 0.00360667, Final residual = 2.35891e-05, No Iterations 1
GAMG:  Solving for ILambda_54_0, Initial residual = 0.00358822, Final residual = 7.00569e-14, No Iterations 1
GAMG:  Solving for ILambda_55_0, Initial residual = 0.00374872, Final residual = 7.12029e-14, No Iterations 1
GAMG:  Solving for ILambda_56_0, Initial residual = 0.00358822, Final residual = 7.10007e-14, No Iterations 1
GAMG:  Solving for ILambda_57_0, Initial residual = 0.00360476, Final residual = 2.34658e-05, No Iterations 1
GAMG:  Solving for ILambda_58_0, Initial residual = 0.00374713, Final residual = 3.91471e-06, No Iterations 2
GAMG:  Solving for ILambda_59_0, Initial residual = 0.00359542, Final residual = 6.70568e-06, No Iterations 2
Radiation solver iter: 5
GAMG:  Solving for ILambda_0_0, Initial residual = 0.00166285, Final residual = 6.78394e-14, No Iterations 1
GAMG:  Solving for ILambda_1_0, Initial residual = 0.00153851, Final residual = 6.94242e-14, No Iterations 1
GAMG:  Solving for ILambda_2_0, Initial residual = 0.00166285, Final residual = 6.9425e-14, No Iterations 1
GAMG:  Solving for ILambda_3_0, Initial residual = 0.00166682, Final residual = 8.55085e-06, No Iterations 1
GAMG:  Solving for ILambda_4_0, Initial residual = 0.00153771, Final residual = 4.07115e-05, No Iterations 1
GAMG:  Solving for ILambda_5_0, Initial residual = 0.00166668, Final residual = 7.24936e-05, No Iterations 1
GAMG:  Solving for ILambda_6_0, Initial residual = 0.00166624, Final residual = 8.51267e-05, No Iterations 1
GAMG:  Solving for ILambda_7_0, Initial residual = 0.00153852, Final residual = 8.01428e-05, No Iterations 1
GAMG:  Solving for ILambda_8_0, Initial residual = 0.00166387, Final residual = 7.93911e-05, No Iterations 1
GAMG:  Solving for ILambda_9_0, Initial residual = 0.00166689, Final residual = 6.51088e-05, No Iterations 1
GAMG:  Solving for ILambda_10_0, Initial residual = 0.00155753, Final residual = 3.79145e-05, No Iterations 1
GAMG:  Solving for ILambda_11_0, Initial residual = 0.00166767, Final residual = 8.43968e-06, No Iterations 1
GAMG:  Solving for ILambda_12_0, Initial residual = 0.00229583, Final residual = 6.7149e-14, No Iterations 1
GAMG:  Solving for ILambda_13_0, Initial residual = 0.0027314, Final residual = 6.66973e-14, No Iterations 1
GAMG:  Solving for ILambda_14_0, Initial residual = 0.00229583, Final residual = 6.66256e-14, No Iterations 1
GAMG:  Solving for ILambda_15_0, Initial residual = 0.00229343, Final residual = 4.36129e-05, No Iterations 1
GAMG:  Solving for ILambda_16_0, Initial residual = 0.0027283, Final residual = 1.10341e-05, No Iterations 2
GAMG:  Solving for ILambda_17_0, Initial residual = 0.00230686, Final residual = 1.28965e-05, No Iterations 2
GAMG:  Solving for ILambda_18_0, Initial residual = 0.00230356, Final residual = 1.49437e-05, No Iterations 2
GAMG:  Solving for ILambda_19_0, Initial residual = 0.00274072, Final residual = 2.20314e-05, No Iterations 2
GAMG:  Solving for ILambda_20_0, Initial residual = 0.00230124, Final residual = 1.37423e-05, No Iterations 2
GAMG:  Solving for ILambda_21_0, Initial residual = 0.00230367, Final residual = 1.16921e-05, No Iterations 2
GAMG:  Solving for ILambda_22_0, Initial residual = 0.00273448, Final residual = 8.94959e-06, No Iterations 2
GAMG:  Solving for ILambda_23_0, Initial residual = 0.00233771, Final residual = 4.39361e-05, No Iterations 1
GAMG:  Solving for ILambda_24_0, Initial residual = 0.00110753, Final residual = 5.18638e-14, No Iterations 1
GAMG:  Solving for ILambda_25_0, Initial residual = 0.00250088, Final residual = 6.35846e-14, No Iterations 1
GAMG:  Solving for ILambda_26_0, Initial residual = 0.00110753, Final residual = 5.27276e-14, No Iterations 1
GAMG:  Solving for ILambda_27_0, Initial residual = 0.00110677, Final residual = 8.90866e-06, No Iterations 1
GAMG:  Solving for ILambda_28_0, Initial residual = 0.00249921, Final residual = 8.40266e-05, No Iterations 1
GAMG:  Solving for ILambda_29_0, Initial residual = 0.00112002, Final residual = 1.0197e-05, No Iterations 1
GAMG:  Solving for ILambda_30_0, Initial residual = 0.00110753, Final residual = 5.32657e-14, No Iterations 1
GAMG:  Solving for ILambda_31_0, Initial residual = 0.00250088, Final residual = 6.4658e-14, No Iterations 1
GAMG:  Solving for ILambda_32_0, Initial residual = 0.00110753, Final residual = 5.05582e-14, No Iterations 1
GAMG:  Solving for ILambda_33_0, Initial residual = 0.00110677, Final residual = 8.90866e-06, No Iterations 1
GAMG:  Solving for ILambda_34_0, Initial residual = 0.00249921, Final residual = 8.40266e-05, No Iterations 1
GAMG:  Solving for ILambda_35_0, Initial residual = 0.00112002, Final residual = 1.0197e-05, No Iterations 1
GAMG:  Solving for ILambda_36_0, Initial residual = 0.00230356, Final residual = 1.49437e-05, No Iterations 2
GAMG:  Solving for ILambda_37_0, Initial residual = 0.00274072, Final residual = 2.20314e-05, No Iterations 2
GAMG:  Solving for ILambda_38_0, Initial residual = 0.00230124, Final residual = 1.37423e-05, No Iterations 2
GAMG:  Solving for ILambda_39_0, Initial residual = 0.00230367, Final residual = 1.16921e-05, No Iterations 2
GAMG:  Solving for ILambda_40_0, Initial residual = 0.00273448, Final residual = 8.94959e-06, No Iterations 2
GAMG:  Solving for ILambda_41_0, Initial residual = 0.00233771, Final residual = 4.39361e-05, No Iterations 1
GAMG:  Solving for ILambda_42_0, Initial residual = 0.00229583, Final residual = 6.55301e-14, No Iterations 1
GAMG:  Solving for ILambda_43_0, Initial residual = 0.0027314, Final residual = 6.66391e-14, No Iterations 1
GAMG:  Solving for ILambda_44_0, Initial residual = 0.00229583, Final residual = 5.47175e-14, No Iterations 1
GAMG:  Solving for ILambda_45_0, Initial residual = 0.00229343, Final residual = 4.36129e-05, No Iterations 1
GAMG:  Solving for ILambda_46_0, Initial residual = 0.0027283, Final residual = 1.10341e-05, No Iterations 2
GAMG:  Solving for ILambda_47_0, Initial residual = 0.00230686, Final residual = 1.28965e-05, No Iterations 2
GAMG:  Solving for ILambda_48_0, Initial residual = 0.00166624, Final residual = 8.51267e-05, No Iterations 1
GAMG:  Solving for ILambda_49_0, Initial residual = 0.00153852, Final residual = 8.01428e-05, No Iterations 1
GAMG:  Solving for ILambda_50_0, Initial residual = 0.00166387, Final residual = 7.93911e-05, No Iterations 1
GAMG:  Solving for ILambda_51_0, Initial residual = 0.00166689, Final residual = 6.51088e-05, No Iterations 1
GAMG:  Solving for ILambda_52_0, Initial residual = 0.00155753, Final residual = 3.79145e-05, No Iterations 1
GAMG:  Solving for ILambda_53_0, Initial residual = 0.00166767, Final residual = 8.43968e-06, No Iterations 1
GAMG:  Solving for ILambda_54_0, Initial residual = 0.00166285, Final residual = 6.98149e-14, No Iterations 1
GAMG:  Solving for ILambda_55_0, Initial residual = 0.00153851, Final residual = 7.03741e-14, No Iterations 1
GAMG:  Solving for ILambda_56_0, Initial residual = 0.00166285, Final residual = 7.21955e-14, No Iterations 1
GAMG:  Solving for ILambda_57_0, Initial residual = 0.00166682, Final residual = 8.55085e-06, No Iterations 1
GAMG:  Solving for ILambda_58_0, Initial residual = 0.00153771, Final residual = 4.07115e-05, No Iterations 1
GAMG:  Solving for ILambda_59_0, Initial residual = 0.00166668, Final residual = 7.24936e-05, No Iterations 1
Radiation solver iter: 6
GAMG:  Solving for ILambda_12_0, Initial residual = 0.00123483, Final residual = 6.60077e-14, No Iterations 1
GAMG:  Solving for ILambda_13_0, Initial residual = 0.00150244, Final residual = 6.58366e-14, No Iterations 1
GAMG:  Solving for ILambda_14_0, Initial residual = 0.00123483, Final residual = 6.55667e-14, No Iterations 1
GAMG:  Solving for ILambda_15_0, Initial residual = 0.00124782, Final residual = 2.14281e-05, No Iterations 1
GAMG:  Solving for ILambda_16_0, Initial residual = 0.00150388, Final residual = 9.66006e-05, No Iterations 1
GAMG:  Solving for ILambda_17_0, Initial residual = 0.00124392, Final residual = 6.73373e-06, No Iterations 2
GAMG:  Solving for ILambda_18_0, Initial residual = 0.00123846, Final residual = 6.89607e-06, No Iterations 2
GAMG:  Solving for ILambda_19_0, Initial residual = 0.00150474, Final residual = 1.13023e-05, No Iterations 2
GAMG:  Solving for ILambda_20_0, Initial residual = 0.00123742, Final residual = 6.44044e-06, No Iterations 2
GAMG:  Solving for ILambda_21_0, Initial residual = 0.0012418, Final residual = 9.49767e-05, No Iterations 1
GAMG:  Solving for ILambda_22_0, Initial residual = 0.001507, Final residual = 8.15877e-05, No Iterations 1
GAMG:  Solving for ILambda_23_0, Initial residual = 0.00126994, Final residual = 2.15566e-05, No Iterations 1
GAMG:  Solving for ILambda_24_0, Initial residual = 0.000424129, Final residual = 5.17444e-14, No Iterations 1
GAMG:  Solving for ILambda_25_0, Initial residual = 0.00144999, Final residual = 6.42744e-14, No Iterations 1
GAMG:  Solving for ILambda_26_0, Initial residual = 0.000424129, Final residual = 5.32329e-14, No Iterations 1
GAMG:  Solving for ILambda_27_0, Initial residual = 0.000427294, Final residual = 2.54789e-06, No Iterations 1
GAMG:  Solving for ILambda_28_0, Initial residual = 0.00147953, Final residual = 4.22577e-05, No Iterations 1
GAMG:  Solving for ILambda_29_0, Initial residual = 0.000428307, Final residual = 3.33345e-06, No Iterations 1
GAMG:  Solving for ILambda_30_0, Initial residual = 0.000424129, Final residual = 5.45006e-14, No Iterations 1
GAMG:  Solving for ILambda_31_0, Initial residual = 0.00144999, Final residual = 6.34586e-14, No Iterations 1
GAMG:  Solving for ILambda_32_0, Initial residual = 0.000424129, Final residual = 5.17597e-14, No Iterations 1
GAMG:  Solving for ILambda_33_0, Initial residual = 0.000427294, Final residual = 2.54789e-06, No Iterations 1
GAMG:  Solving for ILambda_34_0, Initial residual = 0.00147953, Final residual = 4.22577e-05, No Iterations 1
GAMG:  Solving for ILambda_35_0, Initial residual = 0.000428307, Final residual = 3.33345e-06, No Iterations 1
GAMG:  Solving for ILambda_36_0, Initial residual = 0.00123846, Final residual = 6.89607e-06, No Iterations 2
GAMG:  Solving for ILambda_37_0, Initial residual = 0.00150474, Final residual = 1.13023e-05, No Iterations 2
GAMG:  Solving for ILambda_38_0, Initial residual = 0.00123742, Final residual = 6.44044e-06, No Iterations 2
GAMG:  Solving for ILambda_39_0, Initial residual = 0.0012418, Final residual = 9.49767e-05, No Iterations 1
GAMG:  Solving for ILambda_40_0, Initial residual = 0.001507, Final residual = 8.15877e-05, No Iterations 1
GAMG:  Solving for ILambda_41_0, Initial residual = 0.00126994, Final residual = 2.15566e-05, No Iterations 1
GAMG:  Solving for ILambda_42_0, Initial residual = 0.00123483, Final residual = 6.58171e-14, No Iterations 1
GAMG:  Solving for ILambda_43_0, Initial residual = 0.00150244, Final residual = 6.60103e-14, No Iterations 1
GAMG:  Solving for ILambda_44_0, Initial residual = 0.00123483, Final residual = 5.56417e-14, No Iterations 1
GAMG:  Solving for ILambda_45_0, Initial residual = 0.00124782, Final residual = 2.14281e-05, No Iterations 1
GAMG:  Solving for ILambda_46_0, Initial residual = 0.00150388, Final residual = 9.66006e-05, No Iterations 1
GAMG:  Solving for ILambda_47_0, Initial residual = 0.00124392, Final residual = 6.73373e-06, No Iterations 2
Radiation solver iter: 7
GAMG:  Solving for ILambda_13_0, Initial residual = 0.00087734, Final residual = 6.71107e-14, No Iterations 1
GAMG:  Solving for ILambda_15_0, Initial residual = 0.000741749, Final residual = 9.63223e-06, No Iterations 1
GAMG:  Solving for ILambda_16_0, Initial residual = 0.000909317, Final residual = 4.56935e-05, No Iterations 1
GAMG:  Solving for ILambda_17_0, Initial residual = 0.000729332, Final residual = 4.56872e-05, No Iterations 1
GAMG:  Solving for ILambda_18_0, Initial residual = 0.000725721, Final residual = 4.91672e-05, No Iterations 1
GAMG:  Solving for ILambda_19_0, Initial residual = 0.000877266, Final residual = 6.14747e-05, No Iterations 1
GAMG:  Solving for ILambda_20_0, Initial residual = 0.000725263, Final residual = 4.65747e-05, No Iterations 1
GAMG:  Solving for ILambda_21_0, Initial residual = 0.00076479, Final residual = 4.55805e-05, No Iterations 1
GAMG:  Solving for ILambda_22_0, Initial residual = 0.000914397, Final residual = 4.24576e-05, No Iterations 1
GAMG:  Solving for ILambda_23_0, Initial residual = 0.000751968, Final residual = 9.69834e-06, No Iterations 1
GAMG:  Solving for ILambda_25_0, Initial residual = 0.000913909, Final residual = 6.50646e-14, No Iterations 1
GAMG:  Solving for ILambda_28_0, Initial residual = 0.000938332, Final residual = 1.92705e-05, No Iterations 1
GAMG:  Solving for ILambda_31_0, Initial residual = 0.000913909, Final residual = 6.38979e-14, No Iterations 1
GAMG:  Solving for ILambda_34_0, Initial residual = 0.000938332, Final residual = 1.92705e-05, No Iterations 1
GAMG:  Solving for ILambda_36_0, Initial residual = 0.000725721, Final residual = 4.91672e-05, No Iterations 1
GAMG:  Solving for ILambda_37_0, Initial residual = 0.000877266, Final residual = 6.14747e-05, No Iterations 1
GAMG:  Solving for ILambda_38_0, Initial residual = 0.000725263, Final residual = 4.65747e-05, No Iterations 1
GAMG:  Solving for ILambda_39_0, Initial residual = 0.00076479, Final residual = 4.55805e-05, No Iterations 1
GAMG:  Solving for ILambda_40_0, Initial residual = 0.000914397, Final residual = 4.24576e-05, No Iterations 1
GAMG:  Solving for ILambda_41_0, Initial residual = 0.000751968, Final residual = 9.69834e-06, No Iterations 1
GAMG:  Solving for ILambda_43_0, Initial residual = 0.00087734, Final residual = 6.70707e-14, No Iterations 1
GAMG:  Solving for ILambda_45_0, Initial residual = 0.000741749, Final residual = 9.63223e-06, No Iterations 1
GAMG:  Solving for ILambda_46_0, Initial residual = 0.000909317, Final residual = 4.56935e-05, No Iterations 1
GAMG:  Solving for ILambda_47_0, Initial residual = 0.000729332, Final residual = 4.56872e-05, No Iterations 1
DICPCG:  Solving for p_rgh, Initial residual = 0.579666, Final residual = 0.00461758, No Iterations 31
diagonal:  Solving for rho, Initial residual = 0, Final residual = 0, No Iterations 0
time step continuity errors : sum local = 4.79724e-10, global = 1.61157e-13, cumulative = 1.61157e-13
DICPCG:  Solving for p_rgh, Initial residual = 0.52299, Final residual = 6.69552e-09, No Iterations 60
diagonal:  Solving for rho, Initial residual = 0, Final residual = 0, No Iterations 0
time step continuity errors : sum local = 4.96878e-10, global = 1.18944e-13, cumulative = 2.80101e-13
ExecutionTime = 3.05 s  ClockTime = 5 s

Courant Number mean: 2.03084e-09 max: 2.84062e-07
Time = 0.2

diagonal:  Solving for rho, Initial residual = 0, Final residual = 0, No Iterations 0
PIMPLE: iteration 1
DICPCG:  Solving for p_rgh, Initial residual = 0.789291, Final residual = 0.00727257, No Iterations 33
diagonal:  Solving for rho, Initial residual = 0, Final residual = 0, No Iterations 0
time step continuity errors : sum local = 5.0788e-10, global = 2.23052e-13, cumulative = 5.03152e-13
DICPCG:  Solving for p_rgh, Initial residual = 0.568194, Final residual = 4.99781e-09, No Iterations 60
diagonal:  Solving for rho, Initial residual = 0, Final residual = 0, No Iterations 0
time step continuity errors : sum local = 5.01858e-10, global = 7.95499e-14, cumulative = 5.82702e-13
ExecutionTime = 3.47 s  ClockTime = 6 s

Courant Number mean: 2.04025e-09 max: 2.84447e-07
Time = 0.3

diagonal:  Solving for rho, Initial residual = 0, Final residual = 0, No Iterations 0
PIMPLE: iteration 1
DICPCG:  Solving for p_rgh, Initial residual = 0.89549, Final residual = 0.00753226, No Iterations 32
diagonal:  Solving for rho, Initial residual = 0, Final residual = 0, No Iterations 0
time step continuity errors : sum local = 5.01197e-10, global = -2.51164e-15, cumulative = 5.80191e-13
DICPCG:  Solving for p_rgh, Initial residual = 0.56023, Final residual = 6.02194e-09, No Iterations 60
diagonal:  Solving for rho, Initial residual = 0, Final residual = 0, No Iterations 0
time step continuity errors : sum local = 4.9657e-10, global = -4.37878e-14, cumulative = 5.36403e-13
ExecutionTime = 3.88 s  ClockTime = 6 s

Courant Number mean: 1.95547e-09 max: 2.69445e-07
Time = 0.4

diagonal:  Solving for rho, Initial residual = 0, Final residual = 0, No Iterations 0
PIMPLE: iteration 1
DICPCG:  Solving for p_rgh, Initial residual = 0.892703, Final residual = 0.00816363, No Iterations 32
diagonal:  Solving for rho, Initial residual = 0, Final residual = 0, No Iterations 0
time step continuity errors : sum local = 4.9486e-10, global = -5.83616e-14, cumulative = 4.78041e-13
DICPCG:  Solving for p_rgh, Initial residual = 0.562142, Final residual = 6.0732e-09, No Iterations 60
diagonal:  Solving for rho, Initial residual = 0, Final residual = 0, No Iterations 0
time step continuity errors : sum local = 5.04461e-10, global = 4.33306e-14, cumulative = 5.21372e-13
ExecutionTime = 4.25 s  ClockTime = 6 s

Courant Number mean: 2.04405e-09 max: 2.8435e-07
Time = 0.5

diagonal:  Solving for rho, Initial residual = 0, Final residual = 0, No Iterations 0
PIMPLE: iteration 1
DICPCG:  Solving for p_rgh, Initial residual = 0.898513, Final residual = 0.00691051, No Iterations 33
diagonal:  Solving for rho, Initial residual = 0, Final residual = 0, No Iterations 0
time step continuity errors : sum local = 4.98917e-10, global = -3.22024e-14, cumulative = 4.8917e-13
DICPCG:  Solving for p_rgh, Initial residual = 0.564294, Final residual = 5.23175e-09, No Iterations 60
diagonal:  Solving for rho, Initial residual = 0, Final residual = 0, No Iterations 0
time step continuity errors : sum local = 4.99649e-10, global = -3.59965e-14, cumulative = 4.53173e-13
ExecutionTime = 4.64 s  ClockTime = 7 s

Courant Number mean: 1.95336e-09 max: 2.69759e-07
Time = 0.6

diagonal:  Solving for rho, Initial residual = 0, Final residual = 0, No Iterations 0
PIMPLE: iteration 1
DICPCG:  Solving for p_rgh, Initial residual = 0.895841, Final residual = 0.00654645, No Iterations 32
diagonal:  Solving for rho, Initial residual = 0, Final residual = 0, No Iterations 0
time step continuity errors : sum local = 4.99025e-10, global = -8.85549e-14, cumulative = 3.64618e-13
DICPCG:  Solving for p_rgh, Initial residual = 0.567642, Final residual = 6.85789e-09, No Iterations 60
diagonal:  Solving for rho, Initial residual = 0, Final residual = 0, No Iterations 0
time step continuity errors : sum local = 4.95907e-10, global = -8.85506e-14, cumulative = 2.76068e-13
ExecutionTime = 5.03 s  ClockTime = 7 s

Courant Number mean: 1.91639e-09 max: 2.66334e-07
Time = 0.7

diagonal:  Solving for rho, Initial residual = 0, Final residual = 0, No Iterations 0
PIMPLE: iteration 1
DICPCG:  Solving for p_rgh, Initial residual = 0.898178, Final residual = 0.00893716, No Iterations 32
diagonal:  Solving for rho, Initial residual = 0, Final residual = 0, No Iterations 0
time step continuity errors : sum local = 4.98642e-10, global = 1.46403e-13, cumulative = 4.22471e-13
DICPCG:  Solving for p_rgh, Initial residual = 0.559884, Final residual = 6.05421e-09, No Iterations 60
diagonal:  Solving for rho, Initial residual = 0, Final residual = 0, No Iterations 0
time step continuity errors : sum local = 5.01648e-10, global = 9.79067e-14, cumulative = 5.20377e-13
ExecutionTime = 5.39 s  ClockTime = 8 s

Courant Number mean: 1.91775e-09 max: 2.69653e-07
Time = 0.8

diagonal:  Solving for rho, Initial residual = 0, Final residual = 0, No Iterations 0
PIMPLE: iteration 1
DICPCG:  Solving for p_rgh, Initial residual = 0.899821, Final residual = 0.008263, No Iterations 32
diagonal:  Solving for rho, Initial residual = 0, Final residual = 0, No Iterations 0
time step continuity errors : sum local = 4.90778e-10, global = -4.05914e-14, cumulative = 4.79786e-13
DICPCG:  Solving for p_rgh, Initial residual = 0.567616, Final residual = 9.0243e-09, No Iterations 59
diagonal:  Solving for rho, Initial residual = 0, Final residual = 0, No Iterations 0
time step continuity errors : sum local = 5.06854e-10, global = 3.69639e-14, cumulative = 5.1675e-13
ExecutionTime = 5.77 s  ClockTime = 8 s

Courant Number mean: 2.12323e-09 max: 2.91673e-07
Time = 0.9

diagonal:  Solving for rho, Initial residual = 0, Final residual = 0, No Iterations 0
PIMPLE: iteration 1
DICPCG:  Solving for p_rgh, Initial residual = 0.904292, Final residual = 0.00860161, No Iterations 32
diagonal:  Solving for rho, Initial residual = 0, Final residual = 0, No Iterations 0
time step continuity errors : sum local = 4.92052e-10, global = -1.95618e-14, cumulative = 4.97188e-13
DICPCG:  Solving for p_rgh, Initial residual = 0.558252, Final residual = 5.2302e-09, No Iterations 60
diagonal:  Solving for rho, Initial residual = 0, Final residual = 0, No Iterations 0
time step continuity errors : sum local = 5.07415e-10, global = -7.98544e-15, cumulative = 4.89203e-13
ExecutionTime = 6.14 s  ClockTime = 8 s

Courant Number mean: 2.19445e-09 max: 3.0495e-07
Time = 1

diagonal:  Solving for rho, Initial residual = 0, Final residual = 0, No Iterations 0
PIMPLE: iteration 1
Radiation solver iter: 0
GAMG:  Solving for ILambda_0_0, Initial residual = 0.000784824, Final residual = 6.77559e-14, No Iterations 1
GAMG:  Solving for ILambda_1_0, Initial residual = 0.000622785, Final residual = 6.93105e-14, No Iterations 1
GAMG:  Solving for ILambda_2_0, Initial residual = 0.000784824, Final residual = 6.98062e-14, No Iterations 1
GAMG:  Solving for ILambda_3_0, Initial residual = 0.000788791, Final residual = 3.44002e-06, No Iterations 1
GAMG:  Solving for ILambda_4_0, Initial residual = 0.0006237, Final residual = 1.48988e-05, No Iterations 1
GAMG:  Solving for ILambda_5_0, Initial residual = 0.000790015, Final residual = 3.0579e-05, No Iterations 1
GAMG:  Solving for ILambda_6_0, Initial residual = 0.000783498, Final residual = 3.60938e-05, No Iterations 1
GAMG:  Solving for ILambda_7_0, Initial residual = 0.000607289, Final residual = 2.98178e-05, No Iterations 1
GAMG:  Solving for ILambda_8_0, Initial residual = 0.00078131, Final residual = 3.23723e-05, No Iterations 1
GAMG:  Solving for ILambda_9_0, Initial residual = 0.000793924, Final residual = 2.69759e-05, No Iterations 1
GAMG:  Solving for ILambda_10_0, Initial residual = 0.000633994, Final residual = 1.39621e-05, No Iterations 1
GAMG:  Solving for ILambda_11_0, Initial residual = 0.000789285, Final residual = 3.47454e-06, No Iterations 1
GAMG:  Solving for ILambda_12_0, Initial residual = 0.000725262, Final residual = 6.7184e-14, No Iterations 1
GAMG:  Solving for ILambda_13_0, Initial residual = 0.000506792, Final residual = 6.73524e-14, No Iterations 1
GAMG:  Solving for ILambda_14_0, Initial residual = 0.000725262, Final residual = 6.69705e-14, No Iterations 1
GAMG:  Solving for ILambda_15_0, Initial residual = 0.000434672, Final residual = 4.93935e-06, No Iterations 1
GAMG:  Solving for ILambda_16_0, Initial residual = 0.000540544, Final residual = 2.65279e-05, No Iterations 1
GAMG:  Solving for ILambda_17_0, Initial residual = 0.000441152, Final residual = 2.65311e-05, No Iterations 1
GAMG:  Solving for ILambda_18_0, Initial residual = 0.00043526, Final residual = 3.03037e-05, No Iterations 1
GAMG:  Solving for ILambda_19_0, Initial residual = 0.000521176, Final residual = 3.81608e-05, No Iterations 1
GAMG:  Solving for ILambda_20_0, Initial residual = 0.000433479, Final residual = 2.91495e-05, No Iterations 1
GAMG:  Solving for ILambda_21_0, Initial residual = 0.000460021, Final residual = 2.57952e-05, No Iterations 1
GAMG:  Solving for ILambda_22_0, Initial residual = 0.000547873, Final residual = 2.41533e-05, No Iterations 1
GAMG:  Solving for ILambda_23_0, Initial residual = 0.00043892, Final residual = 4.91308e-06, No Iterations 1
GAMG:  Solving for ILambda_24_0, Initial residual = 0.000183011, Final residual = 5.05856e-14, No Iterations 1
GAMG:  Solving for ILambda_25_0, Initial residual = 0.000560876, Final residual = 6.24401e-14, No Iterations 1
GAMG:  Solving for ILambda_26_0, Initial residual = 0.000183011, Final residual = 5.39027e-14, No Iterations 1
GAMG:  Solving for ILambda_27_0, Initial residual = 0.000183903, Final residual = 9.72314e-07, No Iterations 1
GAMG:  Solving for ILambda_28_0, Initial residual = 0.000577054, Final residual = 1.04701e-05, No Iterations 1
GAMG:  Solving for ILambda_29_0, Initial residual = 0.0001853, Final residual = 1.12422e-06, No Iterations 1
GAMG:  Solving for ILambda_30_0, Initial residual = 0.000183011, Final residual = 5.3547e-14, No Iterations 1
GAMG:  Solving for ILambda_31_0, Initial residual = 0.000560876, Final residual = 6.34388e-14, No Iterations 1
GAMG:  Solving for ILambda_32_0, Initial residual = 0.000183011, Final residual = 5.14461e-14, No Iterations 1
GAMG:  Solving for ILambda_33_0, Initial residual = 0.000183903, Final residual = 9.72314e-07, No Iterations 1
GAMG:  Solving for ILambda_34_0, Initial residual = 0.000577054, Final residual = 1.04701e-05, No Iterations 1
GAMG:  Solving for ILambda_35_0, Initial residual = 0.0001853, Final residual = 1.12422e-06, No Iterations 1
GAMG:  Solving for ILambda_36_0, Initial residual = 0.00043526, Final residual = 3.03037e-05, No Iterations 1
GAMG:  Solving for ILambda_37_0, Initial residual = 0.000521176, Final residual = 3.81608e-05, No Iterations 1
GAMG:  Solving for ILambda_38_0, Initial residual = 0.000433479, Final residual = 2.91495e-05, No Iterations 1
GAMG:  Solving for ILambda_39_0, Initial residual = 0.000460021, Final residual = 2.57952e-05, No Iterations 1
GAMG:  Solving for ILambda_40_0, Initial residual = 0.000547873, Final residual = 2.41533e-05, No Iterations 1
GAMG:  Solving for ILambda_41_0, Initial residual = 0.00043892, Final residual = 4.91308e-06, No Iterations 1
GAMG:  Solving for ILambda_42_0, Initial residual = 0.000725262, Final residual = 6.58458e-14, No Iterations 1
GAMG:  Solving for ILambda_43_0, Initial residual = 0.000506792, Final residual = 6.5801e-14, No Iterations 1
GAMG:  Solving for ILambda_44_0, Initial residual = 0.000725262, Final residual = 5.49056e-14, No Iterations 1
GAMG:  Solving for ILambda_45_0, Initial residual = 0.000434672, Final residual = 4.93935e-06, No Iterations 1
GAMG:  Solving for ILambda_46_0, Initial residual = 0.000540544, Final residual = 2.65279e-05, No Iterations 1
GAMG:  Solving for ILambda_47_0, Initial residual = 0.000441152, Final residual = 2.65311e-05, No Iterations 1
GAMG:  Solving for ILambda_48_0, Initial residual = 0.000783498, Final residual = 3.60938e-05, No Iterations 1
GAMG:  Solving for ILambda_49_0, Initial residual = 0.000607289, Final residual = 2.98178e-05, No Iterations 1
GAMG:  Solving for ILambda_50_0, Initial residual = 0.00078131, Final residual = 3.23723e-05, No Iterations 1
GAMG:  Solving for ILambda_51_0, Initial residual = 0.000793924, Final residual = 2.69759e-05, No Iterations 1
GAMG:  Solving for ILambda_52_0, Initial residual = 0.000633994, Final residual = 1.39621e-05, No Iterations 1
GAMG:  Solving for ILambda_53_0, Initial residual = 0.000789285, Final residual = 3.47454e-06, No Iterations 1
GAMG:  Solving for ILambda_54_0, Initial residual = 0.000784824, Final residual = 6.89075e-14, No Iterations 1
GAMG:  Solving for ILambda_55_0, Initial residual = 0.000622785, Final residual = 6.98139e-14, No Iterations 1
GAMG:  Solving for ILambda_56_0, Initial residual = 0.000784824, Final residual = 7.04995e-14, No Iterations 1
GAMG:  Solving for ILambda_57_0, Initial residual = 0.000788791, Final residual = 3.44002e-06, No Iterations 1
GAMG:  Solving for ILambda_58_0, Initial residual = 0.0006237, Final residual = 1.48988e-05, No Iterations 1
GAMG:  Solving for ILambda_59_0, Initial residual = 0.000790015, Final residual = 3.0579e-05, No Iterations 1
DICPCG:  Solving for p_rgh, Initial residual = 0.900236, Final residual = 0.00851074, No Iterations 32
diagonal:  Solving for rho, Initial residual = 0, Final residual = 0, No Iterations 0
time step continuity errors : sum local = 4.90796e-10, global = -3.28585e-15, cumulative = 4.85917e-13
DICPCG:  Solving for p_rgh, Initial residual = 0.551847, Final residual = 8.94024e-09, No Iterations 59
diagonal:  Solving for rho, Initial residual = 0, Final residual = 0, No Iterations 0
time step continuity errors : sum local = 4.95633e-10, global = -1.25296e-14, cumulative = 4.73387e-13
ExecutionTime = 6.81 s  ClockTime = 9 s

Courant Number mean: 1.90377e-09 max: 2.61227e-07
Time = 1.1

diagonal:  Solving for rho, Initial residual = 0, Final residual = 0, No Iterations 0
PIMPLE: iteration 1
DICPCG:  Solving for p_rgh, Initial residual = 0.874121, Final residual = 0.00751618, No Iterations 32
diagonal:  Solving for rho, Initial residual = 0, Final residual = 0, No Iterations 0
time step continuity errors : sum local = 4.93308e-10, global = -2.87304e-14, cumulative = 4.44657e-13
DICPCG:  Solving for p_rgh, Initial residual = 0.565919, Final residual = 9.34371e-09, No Iterations 59
diagonal:  Solving for rho, Initial residual = 0, Final residual = 0, No Iterations 0
time step continuity errors : sum local = 4.97451e-10, global = -1.22628e-14, cumulative = 4.32394e-13
ExecutionTime = 7.19 s  ClockTime = 9 s

Courant Number mean: 1.89814e-09 max: 2.62351e-07
Time = 1.2

diagonal:  Solving for rho, Initial residual = 0, Final residual = 0, No Iterations 0
PIMPLE: iteration 1
DICPCG:  Solving for p_rgh, Initial residual = 0.901247, Final residual = 0.00698211, No Iterations 32
diagonal:  Solving for rho, Initial residual = 0, Final residual = 0, No Iterations 0
time step continuity errors : sum local = 5.03127e-10, global = -7.33295e-14, cumulative = 3.59064e-13
DICPCG:  Solving for p_rgh, Initial residual = 0.578288, Final residual = 5.07273e-09, No Iterations 60
diagonal:  Solving for rho, Initial residual = 0, Final residual = 0, No Iterations 0
time step continuity errors : sum local = 4.91876e-10, global = -6.058e-14, cumulative = 2.98484e-13
ExecutionTime = 7.56 s  ClockTime = 10 s

Courant Number mean: 1.92585e-09 max: 2.62719e-07
Time = 1.3

diagonal:  Solving for rho, Initial residual = 0, Final residual = 0, No Iterations 0
PIMPLE: iteration 1
DICPCG:  Solving for p_rgh, Initial residual = 0.904735, Final residual = 0.00705939, No Iterations 32
diagonal:  Solving for rho, Initial residual = 0, Final residual = 0, No Iterations 0
time step continuity errors : sum local = 5.06586e-10, global = 1.42823e-13, cumulative = 4.41307e-13
DICPCG:  Solving for p_rgh, Initial residual = 0.579768, Final residual = 6.67442e-09, No Iterations 60
diagonal:  Solving for rho, Initial residual = 0, Final residual = 0, No Iterations 0
time step continuity errors : sum local = 4.91891e-10, global = 5.89575e-14, cumulative = 5.00265e-13
ExecutionTime = 7.92 s  ClockTime = 10 s

Courant Number mean: 1.98948e-09 max: 2.74771e-07
Time = 1.4

diagonal:  Solving for rho, Initial residual = 0, Final residual = 0, No Iterations 0
PIMPLE: iteration 1
DICPCG:  Solving for p_rgh, Initial residual = 0.904085, Final residual = 0.00799098, No Iterations 32
diagonal:  Solving for rho, Initial residual = 0, Final residual = 0, No Iterations 0
time step continuity errors : sum local = 5.03733e-10, global = -3.60832e-14, cumulative = 4.64182e-13
DICPCG:  Solving for p_rgh, Initial residual = 0.576836, Final residual = 6.29987e-09, No Iterations 60
diagonal:  Solving for rho, Initial residual = 0, Final residual = 0, No Iterations 0
time step continuity errors : sum local = 4.97577e-10, global = 7.5808e-14, cumulative = 5.3999e-13
ExecutionTime = 8.29 s  ClockTime = 11 s

Courant Number mean: 2.06248e-09 max: 2.87474e-07
Time = 1.5

diagonal:  Solving for rho, Initial residual = 0, Final residual = 0, No Iterations 0
PIMPLE: iteration 1
DICPCG:  Solving for p_rgh, Initial residual = 0.903678, Final residual = 0.00829183, No Iterations 32
diagonal:  Solving for rho, Initial residual = 0, Final residual = 0, No Iterations 0
time step continuity errors : sum local = 4.99617e-10, global = -1.0633e-14, cumulative = 5.29357e-13
DICPCG:  Solving for p_rgh, Initial residual = 0.569605, Final residual = 9.92135e-09, No Iterations 59
diagonal:  Solving for rho, Initial residual = 0, Final residual = 0, No Iterations 0
time step continuity errors : sum local = 4.97908e-10, global = -1.75643e-13, cumulative = 3.53714e-13
ExecutionTime = 8.65 s  ClockTime = 11 s

Courant Number mean: 2.07228e-09 max: 2.85659e-07
Time = 1.6

diagonal:  Solving for rho, Initial residual = 0, Final residual = 0, No Iterations 0
PIMPLE: iteration 1
DICPCG:  Solving for p_rgh, Initial residual = 0.907744, Final residual = 0.00720584, No Iterations 32
diagonal:  Solving for rho, Initial residual = 0, Final residual = 0, No Iterations 0
time step continuity errors : sum local = 4.97511e-10, global = 1.78624e-13, cumulative = 5.32337e-13
DICPCG:  Solving for p_rgh, Initial residual = 0.569731, Final residual = 5.59413e-09, No Iterations 60
diagonal:  Solving for rho, Initial residual = 0, Final residual = 0, No Iterations 0
time step continuity errors : sum local = 4.99698e-10, global = 1.14995e-13, cumulative = 6.47333e-13
ExecutionTime = 9.01 s  ClockTime = 11 s

Courant Number mean: 1.97546e-09 max: 2.77037e-07
Time = 1.7

diagonal:  Solving for rho, Initial residual = 0, Final residual = 0, No Iterations 0
PIMPLE: iteration 1
DICPCG:  Solving for p_rgh, Initial residual = 0.902498, Final residual = 0.0082791, No Iterations 32
diagonal:  Solving for rho, Initial residual = 0, Final residual = 0, No Iterations 0
time step continuity errors : sum local = 4.92858e-10, global = -9.99007e-14, cumulative = 5.47432e-13
DICPCG:  Solving for p_rgh, Initial residual = 0.569052, Final residual = 9.87263e-09, No Iterations 59
diagonal:  Solving for rho, Initial residual = 0, Final residual = 0, No Iterations 0
time step continuity errors : sum local = 5.06639e-10, global = 2.05231e-14, cumulative = 5.67955e-13
ExecutionTime = 9.34 s  ClockTime = 12 s

Courant Number mean: 2.09017e-09 max: 2.89867e-07
Time = 1.8

diagonal:  Solving for rho, Initial residual = 0, Final residual = 0, No Iterations 0
PIMPLE: iteration 1
DICPCG:  Solving for p_rgh, Initial residual = 0.908346, Final residual = 0.008321, No Iterations 32
diagonal:  Solving for rho, Initial residual = 0, Final residual = 0, No Iterations 0
time step continuity errors : sum local = 5.03435e-10, global = -8.27804e-14, cumulative = 4.85175e-13
DICPCG:  Solving for p_rgh, Initial residual = 0.56347, Final residual = 5.7136e-09, No Iterations 60
diagonal:  Solving for rho, Initial residual = 0, Final residual = 0, No Iterations 0
time step continuity errors : sum local = 5.07221e-10, global = -1.34614e-13, cumulative = 3.5056e-13
ExecutionTime = 9.69 s  ClockTime = 12 s

Courant Number mean: 2.03867e-09 max: 2.80543e-07
Time = 1.9

diagonal:  Solving for rho, Initial residual = 0, Final residual = 0, No Iterations 0
PIMPLE: iteration 1
DICPCG:  Solving for p_rgh, Initial residual = 0.903846, Final residual = 0.00812935, No Iterations 32
diagonal:  Solving for rho, Initial residual = 0, Final residual = 0, No Iterations 0
time step continuity errors : sum local = 4.99438e-10, global = 1.83892e-13, cumulative = 5.34452e-13
DICPCG:  Solving for p_rgh, Initial residual = 0.562463, Final residual = 7.30059e-09, No Iterations 60
diagonal:  Solving for rho, Initial residual = 0, Final residual = 0, No Iterations 0
time step continuity errors : sum local = 5.00913e-10, global = 9.44476e-14, cumulative = 6.289e-13
ExecutionTime = 10.02 s  ClockTime = 12 s

Courant Number mean: 1.89453e-09 max: 2.5973e-07
Time = 2

diagonal:  Solving for rho, Initial residual = 0, Final residual = 0, No Iterations 0
PIMPLE: iteration 1
Radiation solver iter: 0
GAMG:  Solving for ILambda_0_0, Initial residual = 0.000378474, Final residual = 6.83073e-14, No Iterations 1
GAMG:  Solving for ILambda_1_0, Initial residual = 0.000264714, Final residual = 6.93254e-14, No Iterations 1
GAMG:  Solving for ILambda_2_0, Initial residual = 0.000378474, Final residual = 6.97029e-14, No Iterations 1
GAMG:  Solving for ILambda_3_0, Initial residual = 0.000380708, Final residual = 1.48431e-06, No Iterations 1
GAMG:  Solving for ILambda_4_0, Initial residual = 0.00026916, Final residual = 6.31314e-06, No Iterations 1
GAMG:  Solving for ILambda_5_0, Initial residual = 0.000392544, Final residual = 1.349e-05, No Iterations 1
GAMG:  Solving for ILambda_6_0, Initial residual = 0.000387416, Final residual = 1.56784e-05, No Iterations 1
GAMG:  Solving for ILambda_7_0, Initial residual = 0.000258114, Final residual = 1.20809e-05, No Iterations 1
GAMG:  Solving for ILambda_8_0, Initial residual = 0.000385774, Final residual = 1.44288e-05, No Iterations 1
GAMG:  Solving for ILambda_9_0, Initial residual = 0.000393824, Final residual = 1.25663e-05, No Iterations 1
GAMG:  Solving for ILambda_10_0, Initial residual = 0.00027385, Final residual = 6.04129e-06, No Iterations 1
GAMG:  Solving for ILambda_11_0, Initial residual = 0.00038084, Final residual = 1.49237e-06, No Iterations 1
GAMG:  Solving for ILambda_12_0, Initial residual = 0.00042263, Final residual = 6.85912e-14, No Iterations 1
GAMG:  Solving for ILambda_13_0, Initial residual = 0.000294019, Final residual = 6.58349e-14, No Iterations 1
GAMG:  Solving for ILambda_14_0, Initial residual = 0.00042263, Final residual = 6.60528e-14, No Iterations 1
GAMG:  Solving for ILambda_15_0, Initial residual = 0.000253517, Final residual = 2.22966e-06, No Iterations 1
GAMG:  Solving for ILambda_16_0, Initial residual = 0.000320658, Final residual = 1.27409e-05, No Iterations 1
GAMG:  Solving for ILambda_17_0, Initial residual = 0.000265788, Final residual = 1.15254e-05, No Iterations 1
GAMG:  Solving for ILambda_18_0, Initial residual = 0.000257518, Final residual = 1.16177e-05, No Iterations 1
GAMG:  Solving for ILambda_19_0, Initial residual = 0.000310807, Final residual = 1.82804e-05, No Iterations 1
GAMG:  Solving for ILambda_20_0, Initial residual = 0.000255463, Final residual = 1.10675e-05, No Iterations 1
GAMG:  Solving for ILambda_21_0, Initial residual = 0.000275825, Final residual = 1.13045e-05, No Iterations 1
GAMG:  Solving for ILambda_22_0, Initial residual = 0.000326554, Final residual = 1.21189e-05, No Iterations 1
GAMG:  Solving for ILambda_23_0, Initial residual = 0.000255401, Final residual = 2.21127e-06, No Iterations 1
GAMG:  Solving for ILambda_24_0, Initial residual = 7.73158e-05, Final residual = 7.73158e-05, No Iterations 0
GAMG:  Solving for ILambda_25_0, Initial residual = 0.000341163, Final residual = 6.43259e-14, No Iterations 1
GAMG:  Solving for ILambda_26_0, Initial residual = 7.73158e-05, Final residual = 7.73158e-05, No Iterations 0
GAMG:  Solving for ILambda_27_0, Initial residual = 7.77627e-05, Final residual = 7.77627e-05, No Iterations 0
GAMG:  Solving for ILambda_28_0, Initial residual = 0.000352628, Final residual = 4.28342e-06, No Iterations 1
GAMG:  Solving for ILambda_29_0, Initial residual = 7.89124e-05, Final residual = 7.89124e-05, No Iterations 0
GAMG:  Solving for ILambda_30_0, Initial residual = 7.73158e-05, Final residual = 7.73158e-05, No Iterations 0
GAMG:  Solving for ILambda_31_0, Initial residual = 0.000341163, Final residual = 6.25454e-14, No Iterations 1
GAMG:  Solving for ILambda_32_0, Initial residual = 7.73158e-05, Final residual = 7.73158e-05, No Iterations 0
GAMG:  Solving for ILambda_33_0, Initial residual = 7.77627e-05, Final residual = 7.77627e-05, No Iterations 0
GAMG:  Solving for ILambda_34_0, Initial residual = 0.000352628, Final residual = 4.28342e-06, No Iterations 1
[...]
GAMG:  Solving for ILambda_18_0, Initial residual = 8.09744e-05, Final residual = 8.09744e-05, No Iterations 0
GAMG:  Solving for ILambda_19_0, Initial residual = 5.75827e-05, Final residual = 5.75827e-05, No Iterations 0
GAMG:  Solving for ILambda_20_0, Initial residual = 7.99228e-05, Final residual = 7.99228e-05, No Iterations 0
GAMG:  Solving for ILambda_21_0, Initial residual = 8.85829e-05, Final residual = 8.85829e-05, No Iterations 0
GAMG:  Solving for ILambda_22_0, Initial residual = 6.11177e-05, Final residual = 6.11177e-05, No Iterations 0
GAMG:  Solving for ILambda_23_0, Initial residual = 7.86725e-05, Final residual = 7.86725e-05, No Iterations 0
GAMG:  Solving for ILambda_24_0, Initial residual = 7.73158e-05, Final residual = 7.73158e-05, No Iterations 0
GAMG:  Solving for ILambda_25_0, Initial residual = 6.16742e-05, Final residual = 6.16742e-05, No Iterations 0
GAMG:  Solving for ILambda_26_0, Initial residual = 7.73158e-05, Final residual = 7.73158e-05, No Iterations 0
GAMG:  Solving for ILambda_27_0, Initial residual = 7.77627e-05, Final residual = 7.77627e-05, No Iterations 0
GAMG:  Solving for ILambda_28_0, Initial residual = 6.35332e-05, Final residual = 6.35332e-05, No Iterations 0
GAMG:  Solving for ILambda_29_0, Initial residual = 7.89124e-05, Final residual = 7.89124e-05, No Iterations 0
GAMG:  Solving for ILambda_30_0, Initial residual = 7.73158e-05, Final residual = 7.73158e-05, No Iterations 0
GAMG:  Solving for ILambda_31_0, Initial residual = 6.16742e-05, Final residual = 6.16742e-05, No Iterations 0
GAMG:  Solving for ILambda_32_0, Initial residual = 7.73158e-05, Final residual = 7.73158e-05, No Iterations 0
GAMG:  Solving for ILambda_33_0, Initial residual = 7.77627e-05, Final residual = 7.77627e-05, No Iterations 0
GAMG:  Solving for ILambda_34_0, Initial residual = 6.35332e-05, Final residual = 6.35332e-05, No Iterations 0
GAMG:  Solving for ILambda_35_0, Initial residual = 7.89124e-05, Final residual = 7.89124e-05, No Iterations 0
GAMG:  Solving for ILambda_36_0, Initial residual = 8.09744e-05, Final residual = 8.09744e-05, No Iterations 0
GAMG:  Solving for ILambda_37_0, Initial residual = 5.75827e-05, Final residual = 5.75827e-05, No Iterations 0
GAMG:  Solving for ILambda_38_0, Initial residual = 7.99228e-05, Final residual = 7.99228e-05, No Iterations 0
GAMG:  Solving for ILambda_39_0, Initial residual = 8.85829e-05, Final residual = 8.85829e-05, No Iterations 0
GAMG:  Solving for ILambda_40_0, Initial residual = 6.11177e-05, Final residual = 6.11177e-05, No Iterations 0
GAMG:  Solving for ILambda_41_0, Initial residual = 7.86725e-05, Final residual = 7.86725e-05, No Iterations 0
GAMG:  Solving for ILambda_42_0, Initial residual = 7.58698e-05, Final residual = 7.58698e-05, No Iterations 0
GAMG:  Solving for ILambda_43_0, Initial residual = 9.5403e-05, Final residual = 9.5403e-05, No Iterations 0
GAMG:  Solving for ILambda_44_0, Initial residual = 7.58698e-05, Final residual = 7.58698e-05, No Iterations 0
GAMG:  Solving for ILambda_45_0, Initial residual = 7.84473e-05, Final residual = 7.84473e-05, No Iterations 0
GAMG:  Solving for ILambda_46_0, Initial residual = 5.92614e-05, Final residual = 5.92614e-05, No Iterations 0
GAMG:  Solving for ILambda_47_0, Initial residual = 8.60001e-05, Final residual = 8.60001e-05, No Iterations 0
GAMG:  Solving for ILambda_48_0, Initial residual = 5.49843e-05, Final residual = 5.49843e-05, No Iterations 0
GAMG:  Solving for ILambda_49_0, Initial residual = 5.72307e-05, Final residual = 5.72307e-05, No Iterations 0
GAMG:  Solving for ILambda_50_0, Initial residual = 5.39825e-05, Final residual = 5.39825e-05, No Iterations 0
GAMG:  Solving for ILambda_51_0, Initial residual = 5.37841e-05, Final residual = 5.37841e-05, No Iterations 0
GAMG:  Solving for ILambda_52_0, Initial residual = 5.82937e-05, Final residual = 5.82937e-05, No Iterations 0
GAMG:  Solving for ILambda_53_0, Initial residual = 9.18321e-05, Final residual = 9.18321e-05, No Iterations 0
GAMG:  Solving for ILambda_54_0, Initial residual = 9.117e-05, Final residual = 9.117e-05, No Iterations 0
GAMG:  Solving for ILambda_55_0, Initial residual = 5.50714e-05, Final residual = 5.50714e-05, No Iterations 0
GAMG:  Solving for ILambda_56_0, Initial residual = 9.117e-05, Final residual = 9.117e-05, No Iterations 0
GAMG:  Solving for ILambda_57_0, Initial residual = 9.17723e-05, Final residual = 9.17723e-05, No Iterations 0
GAMG:  Solving for ILambda_58_0, Initial residual = 5.68199e-05, Final residual = 5.68199e-05, No Iterations 0
GAMG:  Solving for ILambda_59_0, Initial residual = 5.37786e-05, Final residual = 5.37786e-05, No Iterations 0
DICPCG:  Solving for p_rgh, Initial residual = 0.910026, Final residual = 0.00753231, No Iterations 32
diagonal:  Solving for rho, Initial residual = 0, Final residual = 0, No Iterations 0
time step continuity errors : sum local = 4.9845e-10, global = -5.46593e-14, cumulative = 1.41696e-11
DICPCG:  Solving for p_rgh, Initial residual = 0.568242, Final residual = 7.61357e-09, No Iterations 60
diagonal:  Solving for rho, Initial residual = 0, Final residual = 0, No Iterations 0
time step continuity errors : sum local = 5.0328e-10, global = -8.95731e-14, cumulative = 1.40801e-11
ExecutionTime = 113.08 s  ClockTime = 128 s

Courant Number mean: 2.06634e-09 max: 2.78582e-07
Time = 89.1

diagonal:  Solving for rho, Initial residual = 0, Final residual = 0, No Iterations 0
PIMPLE: iteration 1
DICPCG:  Solving for p_rgh, Initial residual = 0.907342, Final residual = 0.00899116, No Iterations 33
diagonal:  Solving for rho, Initial residual = 0, Final residual = 0, No Iterations 0
time step continuity errors : sum local = 5.10019e-10, global = -9.01264e-15, cumulative = 1.40711e-11
DICPCG:  Solving for p_rgh, Initial residual = 0.573465, Final residual = 8.47136e-09, No Iterations 59
diagonal:  Solving for rho, Initial residual = 0, Final residual = 0, No Iterations 0
time step continuity errors : sum local = 5.08018e-10, global = 9.6296e-14, cumulative = 1.41674e-11
ExecutionTime = 113.12 s  ClockTime = 128 s

Courant Number mean: 2.17652e-09 max: 2.91019e-07
Time = 89.2

diagonal:  Solving for rho, Initial residual = 0, Final residual = 0, No Iterations 0
PIMPLE: iteration 1
DICPCG:  Solving for p_rgh, Initial residual = 0.906357, Final residual = 0.00739003, No Iterations 32
diagonal:  Solving for rho, Initial residual = 0, Final residual = 0, No Iterations 0
time step continuity errors : sum local = 4.95823e-10, global = -3.74186e-14, cumulative = 1.41299e-11
DICPCG:  Solving for p_rgh, Initial residual = 0.564119, Final residual = 6.50303e-09, No Iterations 60
diagonal:  Solving for rho, Initial residual = 0, Final residual = 0, No Iterations 0
time step continuity errors : sum local = 5.0047e-10, global = -8.7265e-14, cumulative = 1.40427e-11
ExecutionTime = 113.17 s  ClockTime = 128 s

Courant Number mean: 2.05689e-09 max: 2.75401e-07
Time = 89.3

diagonal:  Solving for rho, Initial residual = 0, Final residual = 0, No Iterations 0
PIMPLE: iteration 1
DICPCG:  Solving for p_rgh, Initial residual = 0.901517, Final residual = 0.00857294, No Iterations 32
diagonal:  Solving for rho, Initial residual = 0, Final residual = 0, No Iterations 0
time step continuity errors : sum local = 5.00913e-10, global = 9.53533e-14, cumulative = 1.4138e-11
DICPCG:  Solving for p_rgh, Initial residual = 0.565444, Final residual = 9.76624e-09, No Iterations 59
diagonal:  Solving for rho, Initial residual = 0, Final residual = 0, No Iterations 0
time step continuity errors : sum local = 5.02701e-10, global = 8.52734e-14, cumulative = 1.42233e-11
ExecutionTime = 113.21 s  ClockTime = 128 s

Courant Number mean: 2.03679e-09 max: 2.69603e-07
Time = 89.4

diagonal:  Solving for rho, Initial residual = 0, Final residual = 0, No Iterations 0
PIMPLE: iteration 1
DICPCG:  Solving for p_rgh, Initial residual = 0.909816, Final residual = 0.0078474, No Iterations 32
diagonal:  Solving for rho, Initial residual = 0, Final residual = 0, No Iterations 0
time step continuity errors : sum local = 4.93533e-10, global = -7.09239e-14, cumulative = 1.41524e-11
DICPCG:  Solving for p_rgh, Initial residual = 0.571866, Final residual = 6.33104e-09, No Iterations 60
diagonal:  Solving for rho, Initial residual = 0, Final residual = 0, No Iterations 0
time step continuity errors : sum local = 5.05654e-10, global = 2.93992e-14, cumulative = 1.41818e-11
ExecutionTime = 113.26 s  ClockTime = 129 s

Courant Number mean: 2.13959e-09 max: 2.90768e-07
Time = 89.5

diagonal:  Solving for rho, Initial residual = 0, Final residual = 0, No Iterations 0
PIMPLE: iteration 1
DICPCG:  Solving for p_rgh, Initial residual = 0.906733, Final residual = 0.00878183, No Iterations 32
diagonal:  Solving for rho, Initial residual = 0, Final residual = 0, No Iterations 0
time step continuity errors : sum local = 5.00869e-10, global = -2.72691e-14, cumulative = 1.41545e-11
DICPCG:  Solving for p_rgh, Initial residual = 0.569769, Final residual = 8.51196e-09, No Iterations 60
diagonal:  Solving for rho, Initial residual = 0, Final residual = 0, No Iterations 0
time step continuity errors : sum local = 4.93135e-10, global = -1.08154e-13, cumulative = 1.40463e-11
ExecutionTime = 113.29 s  ClockTime = 129 s

Courant Number mean: 2.11156e-09 max: 2.81371e-07
Time = 89.6

diagonal:  Solving for rho, Initial residual = 0, Final residual = 0, No Iterations 0
PIMPLE: iteration 1
DICPCG:  Solving for p_rgh, Initial residual = 0.905882, Final residual = 0.00823347, No Iterations 32
diagonal:  Solving for rho, Initial residual = 0, Final residual = 0, No Iterations 0
time step continuity errors : sum local = 5.01145e-10, global = 1.3794e-13, cumulative = 1.41843e-11
DICPCG:  Solving for p_rgh, Initial residual = 0.5763, Final residual = 8.3515e-09, No Iterations 59
diagonal:  Solving for rho, Initial residual = 0, Final residual = 0, No Iterations 0
time step continuity errors : sum local = 4.9281e-10, global = 7.09593e-14, cumulative = 1.42552e-11
ExecutionTime = 113.34 s  ClockTime = 129 s

Courant Number mean: 2.07829e-09 max: 2.77619e-07
Time = 89.7

diagonal:  Solving for rho, Initial residual = 0, Final residual = 0, No Iterations 0
PIMPLE: iteration 1
DICPCG:  Solving for p_rgh, Initial residual = 0.903972, Final residual = 0.00710362, No Iterations 32
diagonal:  Solving for rho, Initial residual = 0, Final residual = 0, No Iterations 0
time step continuity errors : sum local = 4.94088e-10, global = -8.33319e-14, cumulative = 1.41719e-11
DICPCG:  Solving for p_rgh, Initial residual = 0.578276, Final residual = 5.97944e-09, No Iterations 60
diagonal:  Solving for rho, Initial residual = 0, Final residual = 0, No Iterations 0
time step continuity errors : sum local = 4.97971e-10, global = 9.70821e-14, cumulative = 1.4269e-11
ExecutionTime = 113.4 s  ClockTime = 129 s

Courant Number mean: 2.09834e-09 max: 2.81568e-07
Time = 89.8

diagonal:  Solving for rho, Initial residual = 0, Final residual = 0, No Iterations 0
PIMPLE: iteration 1
DICPCG:  Solving for p_rgh, Initial residual = 0.906934, Final residual = 0.00718452, No Iterations 32
diagonal:  Solving for rho, Initial residual = 0, Final residual = 0, No Iterations 0
time step continuity errors : sum local = 4.97178e-10, global = -8.58996e-14, cumulative = 1.41831e-11
DICPCG:  Solving for p_rgh, Initial residual = 0.573442, Final residual = 9.88283e-09, No Iterations 58
diagonal:  Solving for rho, Initial residual = 0, Final residual = 0, No Iterations 0
time step continuity errors : sum local = 4.93281e-10, global = -1.29431e-13, cumulative = 1.40537e-11
ExecutionTime = 113.43 s  ClockTime = 129 s

Courant Number mean: 1.99732e-09 max: 2.65775e-07
Time = 89.9

diagonal:  Solving for rho, Initial residual = 0, Final residual = 0, No Iterations 0
PIMPLE: iteration 1
DICPCG:  Solving for p_rgh, Initial residual = 0.906066, Final residual = 0.00725486, No Iterations 32
diagonal:  Solving for rho, Initial residual = 0, Final residual = 0, No Iterations 0
time step continuity errors : sum local = 4.97174e-10, global = 5.74707e-14, cumulative = 1.41111e-11
DICPCG:  Solving for p_rgh, Initial residual = 0.574202, Final residual = 7.26491e-09, No Iterations 59
diagonal:  Solving for rho, Initial residual = 0, Final residual = 0, No Iterations 0
time step continuity errors : sum local = 5.0052e-10, global = -1.29551e-15, cumulative = 1.41098e-11
ExecutionTime = 113.48 s  ClockTime = 129 s

Courant Number mean: 2.05043e-09 max: 2.79735e-07
Time = 90

diagonal:  Solving for rho, Initial residual = 0, Final residual = 0, No Iterations 0
PIMPLE: iteration 1
Radiation solver iter: 0
GAMG:  Solving for ILambda_0_0, Initial residual = 9.117e-05, Final residual = 9.117e-05, No Iterations 0
GAMG:  Solving for ILambda_1_0, Initial residual = 5.50714e-05, Final residual = 5.50714e-05, No Iterations 0
GAMG:  Solving for ILambda_2_0, Initial residual = 9.117e-05, Final residual = 9.117e-05, No Iterations 0
GAMG:  Solving for ILambda_3_0, Initial residual = 9.17723e-05, Final residual = 9.17723e-05, No Iterations 0
GAMG:  Solving for ILambda_4_0, Initial residual = 5.68199e-05, Final residual = 5.68199e-05, No Iterations 0
GAMG:  Solving for ILambda_5_0, Initial residual = 5.37786e-05, Final residual = 5.37786e-05, No Iterations 0
GAMG:  Solving for ILambda_6_0, Initial residual = 5.49843e-05, Final residual = 5.49843e-05, No Iterations 0
GAMG:  Solving for ILambda_7_0, Initial residual = 5.72307e-05, Final residual = 5.72307e-05, No Iterations 0
GAMG:  Solving for ILambda_8_0, Initial residual = 5.39825e-05, Final residual = 5.39825e-05, No Iterations 0
GAMG:  Solving for ILambda_9_0, Initial residual = 5.37841e-05, Final residual = 5.37841e-05, No Iterations 0
GAMG:  Solving for ILambda_10_0, Initial residual = 5.82937e-05, Final residual = 5.82937e-05, No Iterations 0
GAMG:  Solving for ILambda_11_0, Initial residual = 9.18321e-05, Final residual = 9.18321e-05, No Iterations 0
GAMG:  Solving for ILambda_12_0, Initial residual = 7.58698e-05, Final residual = 7.58698e-05, No Iterations 0
GAMG:  Solving for ILambda_13_0, Initial residual = 9.5403e-05, Final residual = 9.5403e-05, No Iterations 0
GAMG:  Solving for ILambda_14_0, Initial residual = 7.58698e-05, Final residual = 7.58698e-05, No Iterations 0
GAMG:  Solving for ILambda_15_0, Initial residual = 7.84473e-05, Final residual = 7.84473e-05, No Iterations 0
GAMG:  Solving for ILambda_16_0, Initial residual = 5.92614e-05, Final residual = 5.92614e-05, No Iterations 0
GAMG:  Solving for ILambda_17_0, Initial residual = 8.60001e-05, Final residual = 8.60001e-05, No Iterations 0
GAMG:  Solving for ILambda_18_0, Initial residual = 8.09744e-05, Final residual = 8.09744e-05, No Iterations 0
GAMG:  Solving for ILambda_19_0, Initial residual = 5.75827e-05, Final residual = 5.75827e-05, No Iterations 0
GAMG:  Solving for ILambda_20_0, Initial residual = 7.99228e-05, Final residual = 7.99228e-05, No Iterations 0
GAMG:  Solving for ILambda_21_0, Initial residual = 8.85829e-05, Final residual = 8.85829e-05, No Iterations 0
GAMG:  Solving for ILambda_22_0, Initial residual = 6.11177e-05, Final residual = 6.11177e-05, No Iterations 0
GAMG:  Solving for ILambda_23_0, Initial residual = 7.86725e-05, Final residual = 7.86725e-05, No Iterations 0
GAMG:  Solving for ILambda_24_0, Initial residual = 7.73158e-05, Final residual = 7.73158e-05, No Iterations 0
GAMG:  Solving for ILambda_25_0, Initial residual = 6.16742e-05, Final residual = 6.16742e-05, No Iterations 0
GAMG:  Solving for ILambda_26_0, Initial residual = 7.73158e-05, Final residual = 7.73158e-05, No Iterations 0
GAMG:  Solving for ILambda_27_0, Initial residual = 7.77627e-05, Final residual = 7.77627e-05, No Iterations 0
GAMG:  Solving for ILambda_28_0, Initial residual = 6.35332e-05, Final residual = 6.35332e-05, No Iterations 0
GAMG:  Solving for ILambda_29_0, Initial residual = 7.89124e-05, Final residual = 7.89124e-05, No Iterations 0
GAMG:  Solving for ILambda_30_0, Initial residual = 7.73158e-05, Final residual = 7.73158e-05, No Iterations 0
GAMG:  Solving for ILambda_31_0, Initial residual = 6.16742e-05, Final residual = 6.16742e-05, No Iterations 0
GAMG:  Solving for ILambda_32_0, Initial residual = 7.73158e-05, Final residual = 7.73158e-05, No Iterations 0
GAMG:  Solving for ILambda_33_0, Initial residual = 7.77627e-05, Final residual = 7.77627e-05, No Iterations 0
GAMG:  Solving for ILambda_34_0, Initial residual = 6.35332e-05, Final residual = 6.35332e-05, No Iterations 0
GAMG:  Solving for ILambda_35_0, Initial residual = 7.89124e-05, Final residual = 7.89124e-05, No Iterations 0
GAMG:  Solving for ILambda_36_0, Initial residual = 8.09744e-05, Final residual = 8.09744e-05, No Iterations 0
GAMG:  Solving for ILambda_37_0, Initial residual = 5.75827e-05, Final residual = 5.75827e-05, No Iterations 0
GAMG:  Solving for ILambda_38_0, Initial residual = 7.99228e-05, Final residual = 7.99228e-05, No Iterations 0
GAMG:  Solving for ILambda_39_0, Initial residual = 8.85829e-05, Final residual = 8.85829e-05, No Iterations 0
GAMG:  Solving for ILambda_40_0, Initial residual = 6.11177e-05, Final residual = 6.11177e-05, No Iterations 0
GAMG:  Solving for ILambda_41_0, Initial residual = 7.86725e-05, Final residual = 7.86725e-05, No Iterations 0
GAMG:  Solving for ILambda_42_0, Initial residual = 7.58698e-05, Final residual = 7.58698e-05, No Iterations 0
GAMG:  Solving for ILambda_43_0, Initial residual = 9.5403e-05, Final residual = 9.5403e-05, No Iterations 0
GAMG:  Solving for ILambda_44_0, Initial residual = 7.58698e-05, Final residual = 7.58698e-05, No Iterations 0
GAMG:  Solving for ILambda_45_0, Initial residual = 7.84473e-05, Final residual = 7.84473e-05, No Iterations 0
GAMG:  Solving for ILambda_46_0, Initial residual = 5.92614e-05, Final residual = 5.92614e-05, No Iterations 0
GAMG:  Solving for ILambda_47_0, Initial residual = 8.60001e-05, Final residual = 8.60001e-05, No Iterations 0
GAMG:  Solving for ILambda_48_0, Initial residual = 5.49843e-05, Final residual = 5.49843e-05, No Iterations 0
GAMG:  Solving for ILambda_49_0, Initial residual = 5.72307e-05, Final residual = 5.72307e-05, No Iterations 0
GAMG:  Solving for ILambda_50_0, Initial residual = 5.39825e-05, Final residual = 5.39825e-05, No Iterations 0
GAMG:  Solving for ILambda_51_0, Initial residual = 5.37841e-05, Final residual = 5.37841e-05, No Iterations 0
GAMG:  Solving for ILambda_52_0, Initial residual = 5.82937e-05, Final residual = 5.82937e-05, No Iterations 0
GAMG:  Solving for ILambda_53_0, Initial residual = 9.18321e-05, Final residual = 9.18321e-05, No Iterations 0
GAMG:  Solving for ILambda_54_0, Initial residual = 9.117e-05, Final residual = 9.117e-05, No Iterations 0
GAMG:  Solving for ILambda_55_0, Initial residual = 5.50714e-05, Final residual = 5.50714e-05, No Iterations 0
GAMG:  Solving for ILambda_56_0, Initial residual = 9.117e-05, Final residual = 9.117e-05, No Iterations 0
GAMG:  Solving for ILambda_57_0, Initial residual = 9.17723e-05, Final residual = 9.17723e-05, No Iterations 0
GAMG:  Solving for ILambda_58_0, Initial residual = 5.68199e-05, Final residual = 5.68199e-05, No Iterations 0
GAMG:  Solving for ILambda_59_0, Initial residual = 5.37786e-05, Final residual = 5.37786e-05, No Iterations 0
DICPCG:  Solving for p_rgh, Initial residual = 0.906764, Final residual = 0.00749766, No Iterations 32
diagonal:  Solving for rho, Initial residual = 0, Final residual = 0, No Iterations 0
time step continuity errors : sum local = 5.04085e-10, global = 6.08453e-14, cumulative = 1.41707e-11
DICPCG:  Solving for p_rgh, Initial residual = 0.578306, Final residual = 6.33085e-09, No Iterations 60
diagonal:  Solving for rho, Initial residual = 0, Final residual = 0, No Iterations 0
time step continuity errors : sum local = 5.00109e-10, global = -4.72477e-14, cumulative = 1.41234e-11
ExecutionTime = 114.56 s  ClockTime = 131 s

End

